13   
From optimize.out: Frame 1 / 2, Energy=    -286.8516735490
C        1.0918431871    0.2799420557    0.5084593209
C        0.9055643285   -0.9931703433   -0.3326926237
C       -0.4025144818   -1.0756662791   -0.6258838152
C       -1.0814473266    0.1439411724    0.0311892415
C       -0.4421382406    1.3816098886   -0.6301732424
N        0.8049740084    1.4811062327   -0.3790758163
H        2.0381411306    0.3877494274    1.0364811344
H        1.7037857060   -1.6606120475   -0.6384633482
H       -0.9124601364   -1.8187001688   -1.2293897903
H       -2.1680275795    0.1208834678    0.1152858240
H       -0.9691858428    2.0914680144   -1.2654672980
C       -0.2113110014    0.1769689155    1.2911729625
H       -0.3572237511   -0.5155203361    2.1185574514
