13   
From optimize.out: Frame 1 / 1, Energy=    -286.8365048672
C        1.5440404333    0.5861293134   -0.1642656935
C        0.8932240621   -0.7432938957    0.0274589318
C       -0.4118021088   -0.6570999196   -0.6948209223
C       -1.0183475571    0.6294805270    0.8815113260
C       -0.6032954815    0.9022185475   -0.5702328577
N        0.7481623825    1.5150230143   -0.5423615294
H        2.5983866781    0.7809973401    0.0292120357
H        1.4557634281   -1.6712684557    0.0633870647
H       -0.8129686200   -1.3478195967   -1.4308827970
H       -1.9834849206    0.8770013627    1.3088557403
H       -1.2899603538    1.4326196268   -1.2296229830
C       -0.4463686444   -0.7299036655    0.8394551851
H       -0.6733492982   -1.5740841980    1.4823064987
13   
From optimize.out: Frame 1 / 2, Energy=    -286.9243173290
C        1.5143146530    0.5169208136   -0.5447309115
C        1.2756695943   -0.8261651460   -0.3177180713
C        0.0609432682   -1.4488562723    0.1419877731
C       -1.3866115770    0.5854280170    0.3805146371
C       -0.5363371001    1.6029706997   -0.0067970645
N        0.7521456300    1.6274969491   -0.4236749827
H        2.5227340230    0.7491750890   -0.8943320385
H        2.1133214216   -1.4916837047   -0.5119802489
H        0.0958371144   -2.5308350293    0.2532017436
H       -2.3883953652    0.8949583120    0.6687326788
H       -0.9748159933    2.6027984089    0.0217636494
C       -1.1124479783   -0.8275575084    0.4492731770
H       -1.9363576907   -1.4546506287    0.7837596584
