13   
Frame   0 IRC: Energy =  -286.8575840000 ; +0.0000 kcal/mol
C        1.5477472760    0.5892260649   -0.1661174802
C        0.8970607177   -0.7388591012    0.0332109042
C       -0.4088273245   -0.6568615315   -0.6897097495
C       -1.0276594355    0.6283354330    0.8764888279
C       -0.6040297190    0.9025335126   -0.5731474427
N        0.7467183084    1.5141514125   -0.5487879860
H        2.6021396743    0.7865712322    0.0202106136
H        1.4608073711   -1.6652998343    0.0714411153
H       -0.8136480880   -1.3545099541   -1.4163496942
H       -2.0106423964    0.8497093975    1.2775321774
H       -1.2895489893    1.4314556195   -1.2331056451
C       -0.4375930341   -0.7233015731    0.8502750883
H       -0.6625243603   -1.5631506781    1.4980592704
13   
Frame   1 IRC: Energy =  -286.8556613275 ; +1.2065 kcal/mol
C        1.5463174254    0.5841525829   -0.1743679201
C        0.8931171403   -0.7350387739    0.0246699165
C       -0.4168735510   -0.6675002307   -0.6965362442
C       -1.0371994430    0.6271038432    0.8681219628
C       -0.6068296350    0.9241669815   -0.5703717969
N        0.7489230934    1.5172898767   -0.5401871924
H        2.6062512524    0.7638919721   -0.0050540288
H        1.4667855812   -1.6554937110    0.0699218654
H       -0.7915365425   -1.4389579237   -1.3685921524
H       -2.0438925836    0.8136055727    1.2295560256
H       -1.2749623744    1.5330802337   -1.1817124107
C       -0.4355754292   -0.7166897330    0.8437701979
H       -0.6545249339   -1.5496106907    1.5007817772
13   
Frame   2 IRC: Energy =  -286.8488439017 ; +5.4845 kcal/mol
C        1.5382957991    0.5782665374   -0.1842287074
C        0.8904209263   -0.7383907402    0.0001661943
C       -0.4231028952   -0.7087308412   -0.7178417820
C       -1.0520262727    0.6164150186    0.8450370134
C       -0.6147685069    0.9613131612   -0.5685751710
N        0.7459725588    1.5222639121   -0.5250576075
H        2.5992374333    0.7500244304   -0.0130521182
H        1.4876107705   -1.6432086389    0.0804852168
H       -0.7639513887   -1.5529545236   -1.3351013217
H       -2.0529544353    0.8095141967    1.2182581727
H       -1.2600712437    1.6505959488   -1.1278146835
C       -0.4469043941   -0.7174811975    0.8189689868
H       -0.6477583515   -1.5276272637    1.5087558076
13   
Frame   3 IRC: Energy =  -286.8378891560 ; +12.3587 kcal/mol
C        1.5330384170    0.5720535405   -0.1943526290
C        0.8934905268   -0.7468925012   -0.0250668545
C       -0.4199043231   -0.7853386647   -0.7282841822
C       -1.0677789500    0.6057871859    0.8170904355
C       -0.6165500198    1.0458496983   -0.5426276800
N        0.7472390719    1.5311478652   -0.5171906507
H        2.5916602839    0.7433689549   -0.0161760837
H        1.5083931577   -1.6368066381    0.0910775186
H       -0.7494407155   -1.6570214303   -1.3200456004
H       -2.0580814711    0.8059997898    1.2098011083
H       -1.2579574237    1.7496080153   -1.0911380774
C       -0.4609474411   -0.7210556497    0.7967708563
H       -0.6431611130   -1.5067001658    1.5201418391
13   
Frame   4 IRC: Energy =  -286.8287636822 ; +18.0850 kcal/mol (Transition State)
C        1.5285032592    0.5656472201   -0.2028230093
C        0.8990860059   -0.7552863879   -0.0476160023
C       -0.4066903081   -0.8765090958   -0.7274526620
C       -1.0855433188    0.5929008647    0.7736363046
C       -0.6173176503    1.1553847468   -0.4928506923
N        0.7471341338    1.5338272515   -0.5207861154
H        2.5859918406    0.7400984883   -0.0170146198
H        1.5247781602   -1.6339809413    0.0994858247
H       -0.7434994631   -1.7372242464   -1.3131679352
H       -2.0598878376    0.8013542682    1.1995819815
H       -1.2614728138    1.8271711170   -1.0636861008
C       -0.4705365967   -0.7236881832    0.7812661666
H       -0.6405454112   -1.4896951021    1.5314268596
13   
Frame   5 IRC: Energy =  -286.8310020484 ; +16.6804 kcal/mol
C        1.5238884460    0.5591089561   -0.2119746287
C        0.9075528936   -0.7626317551   -0.0650658211
C       -0.3851857032   -0.9719639970   -0.7129031577
C       -1.1031434842    0.5815813604    0.7144889587
C       -0.6215887992    1.2686060746   -0.4271889697
N        0.7436196264    1.5319981707   -0.5329439717
H        2.5806694685    0.7375914884   -0.0179920154
H        1.5378364146   -1.6329893638    0.1076743594
H       -0.7439147270   -1.7952724423   -1.3115327326
H       -2.0590347235    0.7942088925    1.1845578228
H       -1.2652564579    1.8918756130   -1.0368009714
C       -0.4757046802   -0.7269334087    0.7690446605
H       -0.6397382740   -1.4751795887    1.5406364669
13   
Frame   6 IRC: Energy =  -286.8412188853 ; +10.2693 kcal/mol
C        1.5149574765    0.5529409696   -0.2283062618
C        0.9199724759   -0.7743305532   -0.0770436577
C       -0.3606182093   -1.0692619508   -0.6894738998
C       -1.1192479745    0.5748520420    0.6603449534
C       -0.6239841641    1.3644653178   -0.3709461239
N        0.7399463553    1.5359826503   -0.5439612699
H        2.5719517530    0.7334840506   -0.0251418997
H        1.5583027653   -1.6323323956    0.1231168008
H       -0.7479715056   -1.8506369404   -1.3151067487
H       -2.0621583658    0.7827139877    1.1606332820
H       -1.2671508937    1.9712090989   -0.9959489450
C       -0.4830457781   -0.7324530715    0.7522119744
H       -0.6409539350   -1.4566332055    1.5496217958
13   
Frame   7 IRC: Energy =  -286.8506872586 ; +4.3278 kcal/mol
C        1.5017425680    0.5461265502   -0.2516768929
C        0.9324396517   -0.7902136937   -0.0858070237
C       -0.3395080650   -1.1589346626   -0.6714740155
C       -1.1316207676    0.5705739229    0.6184115844
C       -0.6263488459    1.4219203454   -0.3409947794
N        0.7380387491    1.5452553813   -0.5476626198
H        2.5592426885    0.7256330582   -0.0454754912
H        1.5913451407   -1.6252108056    0.1513962788
H       -0.7483083892   -1.9081068120   -1.3193957300
H       -2.0740621264    0.7680032362    1.1284284246
H       -1.2611589748    2.0748900791   -0.9274896078
C       -0.4962363042   -0.7387686061    0.7325354491
H       -0.6455653248   -1.4311679936    1.5592044234
13   
Frame   8 IRC: Energy =  -286.8582087557 ; -0.3920 kcal/mol
C        1.4886570789    0.5380064525   -0.2763527102
C        0.9399290053   -0.8051530019   -0.0914518913
C       -0.3193404901   -1.2298440466   -0.6573126191
C       -1.1483349499    0.5641390127    0.5842585471
C       -0.6266475115    1.4537752871   -0.3255570441
N        0.7340382545    1.5516455752   -0.5514587357
H        2.5487152917    0.7139421750   -0.0800820663
H        1.6250483482   -1.6073089465    0.1878957925
H       -0.7389952461   -1.9636572937   -1.3217934491
H       -2.0897272947    0.7537948223    1.0923910072
H       -1.2469322797    2.1819213835   -0.8376801348
C       -0.5111443126   -0.7459092271    0.7104997204
H       -0.6552658942   -1.4053521924    1.5666435835
13   
Frame   9 IRC: Energy =  -286.8639315017 ; -3.9831 kcal/mol
C        1.4763868784    0.5306397985   -0.3021070585
C        0.9454121530   -0.8156220819   -0.0917798022
C       -0.3000799016   -1.2914973811   -0.6471887493
C       -1.1641820737    0.5576716937    0.5517076642
C       -0.6279575091    1.4800994878   -0.3085570649
N        0.7310234347    1.5569010553   -0.5564584607
H        2.5412878982    0.7003186550   -0.1290119113
H        1.6524190473   -1.5841698937    0.2293393781
H       -0.7170350895   -2.0172529877   -1.3226726562
H       -2.1089212072    0.7415410652    1.0565930321
H       -1.2271446078    2.2779403691   -0.7357452611
C       -0.5291709935   -0.7532807513    0.6886097959
H       -0.6720380292   -1.3832890290    1.5672710940
13   
Frame  10 IRC: Energy =  -286.8680358817 ; -6.5587 kcal/mol
C        1.4656971178    0.5253552275   -0.3280430017
C        0.9460170623   -0.8210400097   -0.0854176947
C       -0.2815130963   -1.3410942621   -0.6417886797
C       -1.1788617706    0.5531958540    0.5245264231
C       -0.6279466148    1.5058926180   -0.2855412516
N        0.7294770426    1.5632389097   -0.5599425845
H        2.5368627472    0.6855850838   -0.1951588515
H        1.6702041982   -1.5582947293    0.2755613058
H       -0.6800669684   -2.0740341751   -1.3220484607
H       -2.1294568193    0.7313104517    1.0228372134
H       -1.2041012825    2.3581418906   -0.6288586764
C       -0.5478914747   -0.7605763091    0.6654080609
H       -0.6984201415   -1.3676805500    1.5584661976
13   
Frame  11 IRC: Energy =  -286.8709258317 ; -8.3721 kcal/mol
C        1.4559091308    0.5236433556   -0.3511442809
C        0.9413150654   -0.8214103145   -0.0713251465
C       -0.2677789815   -1.3695573064   -0.6489665245
C       -1.1918907954    0.5536535950    0.5066381961
C       -0.6241908162    1.5302207586   -0.2554106964
N        0.7295136613    1.5725133541   -0.5597612076
H        2.5354262994    0.6697508624   -0.2754909699
H        1.6724106333   -1.5323128358    0.3222877745
H       -0.6248061403   -2.1417408913   -1.3096806420
H       -2.1484060439    0.7227672139    0.9942519465
H       -1.1807638290    2.4215601465   -0.5278385844
C       -0.5637915551   -0.7656391395    0.6392045675
H       -0.7329466289   -1.3634487985    1.5372355675
13   
Frame  12 IRC: Energy =  -286.8731707514 ; -9.7808 kcal/mol
C        1.4490286839    0.5271551368   -0.3667068112
C        0.9284273014   -0.8135012089   -0.0604557084
C       -0.2627150414   -1.3725320476   -0.6754966075
C       -1.1994829861    0.5597600312    0.4979194013
C       -0.6186307669    1.5550822800   -0.2232029211
N        0.7325594856    1.5845274640   -0.5541330863
H        2.5327101224    0.6545107794   -0.3505146377
H        1.6590868993   -1.5151392049    0.3544968314
H       -0.5524195656   -2.2298107723   -1.2613087936
H       -2.1632962369    0.7183665259    0.9751748564
H       -1.1598864257    2.4694043545   -0.4460333942
C       -0.5769500338   -0.7666566090    0.6110377669
H       -0.7684314361   -1.3711667291    1.4992231039
13   
Frame  13 IRC: Energy =  -286.8750639746 ; -10.9689 kcal/mol
C        1.4420838474    0.5330617331   -0.3777434020
C        0.9151468611   -0.8042815394   -0.0614788408
C       -0.2612826593   -1.3764159130   -0.7046950000
C       -1.2049978702    0.5688246282    0.4891031873
C       -0.6120973229    1.5798600775   -0.1951789270
N        0.7359344832    1.5999704500   -0.5450593198
H        2.5270664275    0.6427393309   -0.4046950531
H        1.6427762200   -1.5045092685    0.3614772577
H       -0.4753982951   -2.3236931748   -1.1768846663
H       -2.1723834024    0.7199561504    0.9625337022
H       -1.1408251203    2.5106993730   -0.3794569580
C       -0.5917256495   -0.7649262091    0.5789907875
H       -0.8042975195   -1.3812856383    1.4530872324
13   
Frame  14 IRC: Energy =  -286.8762235523 ; -11.6965 kcal/mol
C        1.4323250336    0.5379490673   -0.3919544312
C        0.9090829501   -0.7996066489   -0.0687319388
C       -0.2544490708   -1.3971516226   -0.7246815345
C       -1.2135269027    0.5771243870    0.4728390890
C       -0.6062978676    1.6037635428   -0.1700660810
N        0.7378318995    1.6168240961   -0.5389469676
H        2.5176203131    0.6332173767   -0.4514268953
H        1.6383334730   -1.4911827719    0.3614866086
H       -0.4037208813   -2.4070327265   -1.0859054428
H       -2.1787743092    0.7252696752    0.9516703815
H       -1.1175335403    2.5516264315   -0.3051771046
C       -0.6120036920   -0.7639581975    0.5430058679
H       -0.8488874054   -1.3868426093    1.4078884488
13   
Frame  15 IRC: Energy =  -286.8766092840 ; -11.9386 kcal/mol
C        1.4217175692    0.5385068562   -0.4110204459
C        0.9053291338   -0.7958663669   -0.0607994231
C       -0.2325418220   -1.4227366804   -0.7351194446
C       -1.2226209048    0.5802911285    0.4577505492
C       -0.6017145919    1.6229390964   -0.1427970940
N        0.7353091957    1.6234531680   -0.5415782554
H        2.5048482481    0.6221081366   -0.5205545165
H        1.6371526905   -1.4659946678    0.3937649041
H       -0.3384815835   -2.4600717530   -1.0274331212
H       -2.1832273324    0.7287192666    0.9441438226
H       -1.0926312584    2.5883237400   -0.2212197322
C       -0.6338317476   -0.7670611864    0.5055614633
H       -0.8993075966   -1.3926107380    1.3593012936
