13   
From qcopt_rct.out: Frame 2 / 2, Energy=    -286.8365051348
C        1.5442260122    0.5858170099   -0.1648227007
C        0.8933928188   -0.7433281533    0.0274524181
C       -0.4116294351   -0.6568399607   -0.6947308194
C       -1.0190626743    0.6293213101    0.8813309350
C       -0.6034654431    0.9023794952   -0.5700925198
N        0.7480965927    1.5150152936   -0.5418434138
H        2.5985034105    0.7806894678    0.0288947196
H        1.4558011547   -1.6713749082    0.0632118031
H       -0.8124854917   -1.3478788806   -1.4307367237
H       -1.9839980831    0.8769962878    1.3090357089
H       -1.2898439338    1.4327961462   -1.2297459986
C       -0.4462241013   -0.7297048709    0.8396281663
H       -0.6733108267   -1.5738882364    1.4824184246
13   
From qcopt_prd.out: Frame 2 / 2, Energy=    -286.9243179091
C        1.5144180968    0.5168101934   -0.5443539347
C        1.2757922600   -0.8263114019   -0.3174248251
C        0.0610287322   -1.4491084524    0.1422301056
C       -1.3867784738    0.5856105649    0.3804640961
C       -0.5363022646    1.6032401734   -0.0071493069
N        0.7522051645    1.6277081371   -0.4239556734
H        2.5227384233    0.7493717137   -0.8943313379
H        2.1133109588   -1.4918781803   -0.5121086974
H        0.0956743757   -2.5311996436    0.2521189280
H       -2.3889162677    0.8947105461    0.6681093407
H       -0.9747389999    2.6032147179    0.0219548549
C       -1.1123049839   -0.8275045081    0.4498644610
H       -1.9361270218   -1.4546638602    0.7845819890
