13   
Frame   0 IRC: Energy =  -286.8764760000 ; +0.0000 kcal/mol
C        1.4731537715    0.4353056382   -0.3602869158
C        0.8918625603   -0.7821237417    0.2299101613
C       -0.7448770212   -0.8167797289    0.1560221046
C       -1.3097990373    0.4472149195   -0.3413355092
C       -0.5450485139    1.5428957205   -0.5655089561
N        0.8476419844    1.5292068480   -0.6388755411
H        2.5257322127    0.3799889962   -0.6446383605
H        1.4575968164   -1.6964639705    0.0419893326
H       -1.2444382515   -1.7415090924   -0.1366772498
H       -2.3796792055    0.4832094823   -0.5291522961
H       -1.0004169054    2.4876161052   -0.8463188491
C        0.0160460007   -0.7871998898    1.4019463193
H        0.0122255892   -1.4813612868    2.2329257594
13   
Frame   1 IRC: Energy =  -286.8756813575 ; +0.4986 kcal/mol
C        1.4776396767    0.4260811809   -0.3812059658
C        0.8940326266   -0.7768455026    0.2387073080
C       -0.7267488806   -0.8412097610    0.1115397921
C       -1.3045218778    0.4336116286   -0.3492984363
C       -0.5418336036    1.5366001052   -0.5448546621
N        0.8486503133    1.5161509795   -0.6612665080
H        2.5197694217    0.3560529135   -0.6980955023
H        1.4688585974   -1.6927976022    0.0886033836
H       -1.1950453391   -1.7720352490   -0.2120161532
H       -2.3819204606    0.4820799551   -0.4848814131
H       -0.9995232997    2.4974655438   -0.7598239040
C       -0.0146820463   -0.7691720712    1.3856334285
H       -0.0446751281   -1.3959821207    2.2669586323
13   
Frame   2 IRC: Energy =  -286.8740066925 ; +1.5495 kcal/mol
C        1.4824483105    0.4188046838   -0.3983625047
C        0.8941059726   -0.7765707467    0.2423305554
C       -0.7076172827   -0.8657274531    0.0674287410
C       -1.2993347577    0.4203569161   -0.3519311250
C       -0.5386717884    1.5272672101   -0.5306582385
N        0.8488098157    1.5035375175   -0.6856411744
H        2.5196493376    0.3404380093   -0.7312373832
H        1.4789584726   -1.6906642756    0.1174323999
H       -1.1486659594   -1.7990698673   -0.2873930895
H       -2.3821780230    0.4803684204   -0.4183623052
H       -0.9963717843    2.4982978226   -0.6861289481
C       -0.0407776773   -0.7600922420    1.3639350337
H       -0.1103546363   -1.2969459953    2.2985880386
13   
Frame   3 IRC: Energy =  -286.8714487997 ; +3.1546 kcal/mol
C        1.4865580836    0.4137477493   -0.4142688634
C        0.8967933126   -0.7753054251    0.2445029585
C       -0.6887673186   -0.8903404877    0.0251064340
C       -1.2932277752    0.4073555571   -0.3482340543
C       -0.5350741010    1.5169300338   -0.5219721056
N        0.8484569888    1.4897303792   -0.7159965526
H        2.5200943821    0.3287044109   -0.7565908470
H        1.4942178274   -1.6846407609    0.1449771037
H       -1.1054601820   -1.8216367583   -0.3617917715
H       -2.3775708748    0.4783705308   -0.3335813244
H       -0.9918820673    2.4956110349   -0.6227961112
C       -0.0670188092   -0.7615211995    1.3404342202
H       -0.1871194665   -1.1970050644    2.3202109136
13   
Frame   4 IRC: Energy =  -286.8681174448 ; +5.2451 kcal/mol
C        1.4906220481    0.4106768972   -0.4327796363
C        0.8978927543   -0.7704849292    0.2462506173
C       -0.6692634529   -0.9134327186   -0.0158575563
C       -1.2850949483    0.3950647045   -0.3410178354
C       -0.5315111450    1.5052217135   -0.5201187931
N        0.8476067700    1.4774827205   -0.7539982875
H        2.5225001039    0.3216564004   -0.7761207120
H        1.5099960506   -1.6737544626    0.1848033738
H       -1.0683677975   -1.8429005126   -0.4270635446
H       -2.3631751312    0.4738962735   -0.2319988970
H       -0.9854701815    2.4905249147   -0.5664859018
C       -0.0961416527   -0.7623615686    1.3154036024
H       -0.2695934179   -1.1115894326    2.3189835707
13   
Frame   5 IRC: Energy =  -286.8639446152 ; +7.8636 kcal/mol
C        1.4949229144    0.4090047070   -0.4538019947
C        0.8940352682   -0.7643683438    0.2408873887
C       -0.6503673203   -0.9383815984   -0.0615397666
C       -1.2714641355    0.3804672306   -0.3275475120
C       -0.5233999120    1.4958562122   -0.5193187194
N        0.8482865462    1.4713759771   -0.7841328007
H        2.5306921182    0.3204312306   -0.7897948127
H        1.5132553593   -1.6632439944    0.2401865596
H       -1.0443928510   -1.8661338231   -0.4781333467
H       -2.3351435821    0.4598107171   -0.1173738517
H       -0.9815665307    2.4797001360   -0.5233517232
C       -0.1286254049   -0.7387452314    1.2834337499
H       -0.3462324700   -1.0457732195    2.2904868295
13   
Frame   6 IRC: Energy =  -286.8582676298 ; +11.4259 kcal/mol (Transition State)
C        1.4990289855    0.4049380230   -0.4732173538
C        0.8799364269   -0.7582747676    0.2233726386
C       -0.6296955996   -0.9767583887   -0.1091466322
C       -1.2394125731    0.3619979455   -0.2531551222
C       -0.5061440969    1.4926995368   -0.5093603516
N        0.8529745109    1.4768475124   -0.7896000358
H        2.5386619162    0.3208353722   -0.7937437701
H        1.4992306708   -1.6528972213    0.2877113822
H       -1.0419396401   -1.9023565256   -0.5139638974
H       -2.2998272340    0.4356392792   -0.0315762099
H       -0.9821204781    2.4671294192   -0.5169625351
C       -0.1758049500   -0.6728867261    1.2398763170
H       -0.3948879385   -0.9969134590    2.2397655703
13   
Frame   7 IRC: Energy =  -286.8584359090 ; +11.3203 kcal/mol
C        1.5027113382    0.3972701854   -0.4823958131
C        0.8676590328   -0.7560055743    0.2066850513
C       -0.6094794935   -1.0193714270   -0.1520622933
C       -1.1970363760    0.3296251827   -0.1270443265
C       -0.4809931264    1.4988419906   -0.5132375079
N        0.8484102966    1.4882383909   -0.7854671965
H        2.5427023072    0.3207046069   -0.7942639559
H        1.4890429151   -1.6460897605    0.3114014767
H       -1.0447028522   -1.9321197258   -0.5329261878
H       -2.2753215149    0.4175578285    0.0087254755
H       -0.9826398431    2.4620336709   -0.5250094372
C       -0.2405090089   -0.5984191367    1.1891125035
H       -0.4198436750   -0.9622662315    2.1964822111
13   
Frame   8 IRC: Energy =  -286.8713211446 ; +3.2347 kcal/mol
C        1.5059224628    0.3900479453   -0.4886020110
C        0.8569733901   -0.7569782130    0.1868443085
C       -0.5886268196   -1.0548207584   -0.1949664473
C       -1.1554047779    0.3033579219    0.0023990156
C       -0.4611963740    1.5006111694   -0.5091063728
N        0.8458300940    1.5006109228   -0.7840516412
H        2.5468628367    0.3202230541   -0.7938709523
H        1.4812293000   -1.6382239753    0.3357771382
H       -1.0494573477   -1.9597817723   -0.5475678113
H       -2.2460747447    0.3958026450    0.0482174637
H       -0.9836333896    2.4555324377   -0.5392867026
C       -0.3064967876   -0.5317936727    1.1366060443
H       -0.4459278425   -0.9245877045    2.1476079681
13   
Frame   9 IRC: Energy =  -286.8780244940 ; -0.9717 kcal/mol
C        1.5105984821    0.3854609925   -0.5015264094
C        0.8536495086   -0.7654726217    0.1594843539
C       -0.5788378126   -1.0720203144   -0.2421389778
C       -1.1290335128    0.3017559332    0.0610212709
C       -0.4489584477    1.5040943330   -0.4820463009
N        0.8502575991    1.5076128894   -0.7789694644
H        2.5562070739    0.3233442874   -0.7904550155
H        1.4796437289   -1.6250988000    0.3860606484
H       -1.0558583885   -1.9815998402   -0.5710521938
H       -2.2123576107    0.3647188421    0.1510302025
H       -0.9935715085    2.4415338018   -0.5736977836
C       -0.3249947861   -0.5153634719    1.0878716972
H       -0.5067443256   -0.8689660311    2.0944179726
13   
Frame  10 IRC: Energy =  -286.8792760000 ; -1.7570 kcal/mol
C        1.5171147127    0.3898650180   -0.4866259266
C        0.8563339301   -0.7750372977    0.1479962299
C       -0.5831653465   -1.0684753004   -0.2537426911
C       -1.1188896638    0.3093044839    0.0928934935
C       -0.4517806280    1.4991271120   -0.4896618527
N        0.8489651624    1.5061990854   -0.7782581044
H        2.5715462649    0.3466387863   -0.7496782899
H        1.4838792890   -1.6342773664    0.3765330482
H       -1.0644533321   -1.9653053434   -0.6167268720
H       -2.1902453272    0.3817308901    0.2702423826
H       -1.0171527529    2.4098464789   -0.6733614219
C       -0.3181621689   -0.5294496994    1.0789369381
H       -0.5339901397   -0.8701668475    2.0814530661
