13   
From optimize.out: Frame 2 / 3, Energy=    -286.8584558379
C        1.5164092504    0.3970059750   -0.4801428518
C        0.8530348703   -0.7814248652    0.1267558406
C       -0.5920261475   -1.0630994478   -0.2532948765
C       -1.1147919436    0.3153463506    0.1138800816
C       -0.4545331516    1.4960737079   -0.4935870867
N        0.8463556059    1.5089947613   -0.7766774000
H        2.5822481034    0.3744660638   -0.6987457291
H        1.4770668176   -1.6490779175    0.3347268910
H       -1.0842922553   -1.9529504614   -0.6202086308
H       -2.1825301154    0.3920699476    0.3124775618
H       -1.0320484011    2.3892807785   -0.7240481721
C       -0.3068346106   -0.5381252990    1.0780556031
H       -0.5080580226   -0.8885595938    2.0808087689
