13   
From qcfsm.out: Frame 81 / 81, Energy=       0.0000000000
C        1.5025464625    0.4066960250   -0.4703932251
C        0.8552048069   -0.7656011973    0.1734840148
C       -0.6211435937   -1.0085380319   -0.1422082840
C       -1.1952090743    0.3472176280   -0.0952648472
C       -0.4821714271    1.4983807424   -0.5272735240
N        0.8501161118    1.5017502693   -0.7753999251
H        2.5648694175    0.3675767646   -0.7043601616
H        1.4735037254   -1.6572428287    0.2635207344
H       -1.1046027839   -1.9140722812   -0.4908441885
H       -2.2705596354    0.4440456018    0.0525869299
H       -1.0060783957    2.4415197818   -0.6476970928
C       -0.2254942295   -0.5973973727    1.1962133100
H       -0.3488183838   -1.0659750165    2.1628908056
