13   
From optimize.out: Frame 1 / 34, Energy=    -286.6523577294
C        1.7054428653    0.3427337479   -2.5592189031
C        1.4199894520   -1.0394777100   -2.4100059413
C       -0.2846022109   -1.3367934532   -2.4793873081
C       -1.2168688993    0.3380421392   -1.1984595748
C       -0.6647844372    1.2691796745   -2.3750155793
N        0.6571754202    1.2437152259   -2.7583796002
H        2.5034278168    0.9828995487   -2.8684121870
H        2.1341937929   -1.8730148869   -2.4024045461
H       -0.4498622001   -1.0799725105   -3.5473359766
H       -0.9513113694    0.8257123320   -0.2260402972
H       -1.3827807282    1.7951761765   -2.9897430582
C       -1.7318307474   -0.9767020271   -1.2398052181
H       -2.0826967612   -1.8393015745   -0.4817195734
13   
From optimize.out: Frame 2 / 34, Energy=    -286.7084285802
C        1.6452746516    0.3417105140   -2.5314475065
C        1.3450272048   -1.0142429081   -2.3960508777
C       -0.2876940790   -1.3408609238   -2.4977161932
C       -1.1733004225    0.3318991801   -1.2147203771
C       -0.6549740593    1.2503494112   -2.3770948440
N        0.6247161835    1.2653349326   -2.7590145288
H        2.5089834612    0.9196011592   -2.8102221383
H        2.0608334565   -1.8387921161   -2.3666989488
H       -0.4886408712   -1.0927173256   -3.5559342669
H       -0.9436446032    0.8211925460   -0.2408220570
H       -1.3826675784    1.7755062100   -2.9842119374
C       -1.6412870531   -0.9726916294   -1.2790485260
H       -1.9571342973   -1.7940923675   -0.5229455619
13   
From optimize.out: Frame 3 / 34, Energy=    -286.7534209116
C        1.5912620345    0.3383569833   -2.5037907641
C        1.2710461560   -0.9978219270   -2.3853083053
C       -0.2922220963   -1.3476096531   -2.5195147407
C       -1.1363275807    0.3374991446   -1.2267013670
C       -0.6477659911    1.2464874250   -2.3768423747
N        0.6016848930    1.2897437271   -2.7589199562
H        2.5083817485    0.8544310609   -2.7454706053
H        1.9911661160   -1.8143505144   -2.3356104684
H       -0.5301360388   -1.1204024143   -3.5712377285
H       -0.9523075756    0.8284567424   -0.2483337731
H       -1.3910544126    1.7608113523   -2.9792195276
C       -1.5368656500   -0.9673410181   -1.3213499055
H       -1.8213696093   -1.7560642263   -0.5636282471
13   
From optimize.out: Frame 4 / 34, Energy=    -286.7880553400
C        1.5497039571    0.3347141939   -2.4833509563
C        1.2082535095   -0.9863268635   -2.3820134730
C       -0.2989259469   -1.3541962542   -2.5374509663
C       -1.1112650127    0.3481305892   -1.2340016179
C       -0.6437022032    1.2475662571   -2.3747263178
N        0.5888241864    1.3124528510   -2.7600853832
H        2.5115668028    0.7903500374   -2.6838676011
H        1.9346330977   -1.7942527381   -2.3144437276
H       -0.5745062595   -1.1556115306   -3.5832477925
H       -0.9861204942    0.8386624031   -0.2507541806
H       -1.3991726020    1.7550236028   -2.9722628026
C       -1.4314970400   -0.9617222334   -1.3625508810
H       -1.6923000016   -1.7225936322   -0.5971720635
13   
From optimize.out: Frame 5 / 34, Energy=    -286.8130524150
C        1.5201275081    0.3300604556   -2.4735523252
C        1.1644805633   -0.9804511003   -2.3877363808
C       -0.3039667778   -1.3624172160   -2.5493263397
C       -1.1016783002    0.3608830382   -1.2387904353
C       -0.6405058855    1.2535722333   -2.3692788130
N        0.5825128736    1.3306405655   -2.7612816175
H        2.5160715579    0.7314105591   -2.6323278520
H        1.9001735398   -1.7782214766   -2.3065485209
H       -0.6175735591   -1.2016855573   -3.5891983798
H       -1.0477069265    0.8468306562   -0.2517637489
H       -1.4006245363    1.7680301364   -2.9587054782
C       -1.3338223618   -0.9565932577   -1.3982660165
H       -1.5819957021   -1.6898623540   -0.6191518556
13   
From optimize.out: Frame 6 / 34, Energy=    -286.8296286782
C        1.5024104683    0.3229693038   -2.4764106763
C        1.1449730346   -0.9823226218   -2.4046202841
C       -0.2994708689   -1.3759291186   -2.5576197154
C       -1.1089424355    0.3736818547   -1.2428070707
C       -0.6384256773    1.2638264696   -2.3599449579
N        0.5786515165    1.3400068335   -2.7616062695
H        2.5207648710    0.6841385619   -2.5956129866
H        1.8925126217   -1.7683108385   -2.3159168894
H       -0.6485876740   -1.2630232991   -3.5912074974
H       -1.1355621630    0.8536746291   -0.2561563973
H       -1.3938010503    1.8094942994   -2.9301803480
C       -1.2551024106   -0.9506360572   -1.4198051875
H       -1.5039282391   -1.6553733343   -0.6240394833
13   
From optimize.out: Frame 7 / 34, Energy=    -286.8411117822
C        1.4919088117    0.3158266504   -2.4868846493
C        1.1406643526   -0.9885795900   -2.4247152095
C       -0.2886213982   -1.3943111197   -2.5623310771
C       -1.1218672408    0.3847102426   -1.2490829337
C       -0.6360506393    1.2778446146   -2.3486722777
N        0.5760401981    1.3429484194   -2.7632566421
H        2.5230672979    0.6519524583   -2.5738584173
H        1.9007305536   -1.7623840969   -2.3331771372
H       -0.6682307041   -1.3367110244   -3.5885370032
H       -1.2298991157    0.8585837113   -0.2682513732
H       -1.3799662180    1.8720895889   -2.8868557979
C       -1.1973245423   -0.9437187411   -1.4292477615
H       -1.4549593618   -1.6260544309   -0.6210574836
13   
From optimize.out: Frame 8 / 34, Energy=    -286.8501124817
C        1.4848917284    0.3106582034   -2.5007438906
C        1.1416855496   -0.9949044146   -2.4420125844
C       -0.2778398007   -1.4131635651   -2.5613683698
C       -1.1334662625    0.3940554043   -1.2585868145
C       -0.6319498420    1.2957438571   -2.3356773254
N        0.5755864597    1.3447721236   -2.7658297934
H        2.5234351104    0.6307831735   -2.5645089432
H        1.9137385052   -1.7572945933   -2.3510766201
H       -0.6837869901   -1.4185173073   -3.5779222257
H       -1.3212596561    0.8602428164   -0.2882569616
H       -1.3602031960    1.9424051761   -2.8350471279
C       -1.1524258222   -0.9367374654   -1.4343723316
H       -1.4229137902   -1.6058467262   -0.6205247752
13   
From optimize.out: Frame 9 / 34, Energy=    -286.8575738859
C        1.4796585183    0.3069416356   -2.5158474437
C        1.1454063517   -1.0009904074   -2.4600977361
C       -0.2653254323   -1.4329353316   -2.5575312864
C       -1.1446733339    0.4030721927   -1.2689192458
C       -0.6268474601    1.3151040524   -2.3205617822
N        0.5768667291    1.3475153866   -2.7654553818
H        2.5224292014    0.6172694285   -2.5636183009
H        1.9290942600   -1.7525726772   -2.3741203872
H       -0.6928356266   -1.5085552194   -3.5614214955
H       -1.4100577372    0.8611042633   -0.3141025529
H       -1.3355092265    2.0134318697   -2.7775269351
C       -1.1167482655   -0.9290042703   -1.4360698170
H       -1.4059659849   -1.5881842404   -0.6206553988
13   
From optimize.out: Frame 10 / 34, Energy=    -286.8639529071
C        1.4760773876    0.3065511393   -2.5316297270
C        1.1491249284   -1.0039370574   -2.4752624781
C       -0.2548288004   -1.4510168057   -2.5484182524
C       -1.1539898736    0.4113318536   -1.2807050216
C       -0.6192808843    1.3365227192   -2.3036086835
N        0.5805239371    1.3532649409   -2.7637441666
H        2.5215811622    0.6096328565   -2.5718112196
H        1.9438001270   -1.7456859435   -2.3987949534
H       -0.6989162791   -1.6080015421   -3.5345502670
H       -1.4916240509    0.8585349745   -0.3445253427
H       -1.3062262276    2.0827768680   -2.7161681363
C       -1.0892434511   -0.9214923132   -1.4390461095
H       -1.4015059817   -1.5762850075   -0.6276634058
13   
From optimize.out: Frame 11 / 34, Energy=    -286.8694827069
C        1.4729160428    0.3076308296   -2.5467894136
C        1.1527636877   -1.0058512766   -2.4939881982
C       -0.2414024527   -1.4700538683   -2.5393462077
C       -1.1630212886    0.4205232854   -1.2908083648
C       -0.6109644275    1.3584027046   -2.2839804543
N        0.5852829977    1.3619654078   -2.7570106770
H        2.5204068038    0.6050312346   -2.5839264386
H        1.9580530825   -1.7381044220   -2.4316255510
H       -0.6949539586   -1.7169306446   -3.5015811041
H       -1.5674316038    0.8562640732   -0.3763777000
H       -1.2757733202    2.1463142125   -2.6530452204
C       -1.0689623972   -0.9124666191   -1.4414211130
H       -1.4114211724   -1.5605282347   -0.6360273208
13   
From optimize.out: Frame 12 / 34, Energy=    -286.8744346222
C        1.4714591176    0.3122609444   -2.5613594965
C        1.1543539351   -1.0034531040   -2.5079586442
C       -0.2323097042   -1.4841543088   -2.5243405066
C       -1.1703004059    0.4285925073   -1.3019818965
C       -0.6002380381    1.3806270355   -2.2645046616
N        0.5922383882    1.3733657374   -2.7506432887
H        2.5207437324    0.6034028466   -2.6021396232
H        1.9685022942   -1.7281747820   -2.4652866884
H       -0.6893153385   -1.8267148690   -3.4540807702
H       -1.6328773337    0.8510788183   -0.4095572090
H       -1.2432714896    2.2043780744   -2.5913566201
C       -1.0552887529   -0.9049833091   -1.4476367392
H       -1.4282044111   -1.5540289085   -0.6550816193
13   
From optimize.out: Frame 13 / 34, Energy=    -286.8790599045
C        1.4701171608    0.3163479316   -2.5749423380
C        1.1560215511   -1.0022769712   -2.5279649445
C       -0.2184211307   -1.4994336284   -2.5115105948
C       -1.1782536482    0.4371790638   -1.3110289649
C       -0.5904949994    1.4015545511   -2.2432130795
N        0.5991326569    1.3856280965   -2.7390816546
H        2.5208122245    0.6021799879   -2.6202741586
H        1.9782337139   -1.7195945573   -2.5081083731
H       -0.6722723300   -1.9362994564   -3.4014346699
H       -1.6948770035    0.8476628885   -0.4432077270
H       -1.2128422192    2.2552479558   -2.5304891122
C       -1.0455936613   -0.8965945227   -1.4523545491
H       -1.4560703215   -1.5394046567   -0.6723175972
13   
From optimize.out: Frame 14 / 34, Energy=    -286.8835562134
C        1.4700576439    0.3223954465   -2.5884368670
C        1.1556357475   -0.9984486385   -2.5448473680
C       -0.2076894389   -1.5101226191   -2.4949556064
C       -1.1861644592    0.4448146742   -1.3207115127
C       -0.5791112909    1.4215608276   -2.2225359813
N        0.6074965529    1.3988205077   -2.7283632745
H        2.5220640944    0.6021045146   -2.6418952999
H        1.9836361545   -1.7101687490   -2.5510509627
H       -0.6535660590   -2.0397009707   -3.3362267912
H       -1.7507898007    0.8430119883   -0.4776598472
H       -1.1810809884    2.3012715675   -2.4717641986
C       -1.0400140560   -0.8898261042   -1.4595443303
H       -1.4849821065   -1.5335157626   -0.6979357234
13   
From optimize.out: Frame 15 / 34, Energy=    -286.8880239615
C        1.4705141284    0.3281607711   -2.6022516967
C        1.1547928745   -0.9952737759   -2.5634270219
C       -0.1955739217   -1.5196012822   -2.4777899346
C       -1.1944721943    0.4517486378   -1.3301834592
C       -0.5679228007    1.4405600337   -2.2007907511
N        0.6159219619    1.4118853925   -2.7160956935
H        2.5234138834    0.6022719163   -2.6654776615
H        1.9869520527   -1.7021283574   -2.5971128738
H       -0.6279348110   -2.1364793118   -3.2638113223
H       -1.8041220084    0.8383195160   -0.5137625399
H       -1.1503104620    2.3427062619   -2.4130465334
C       -1.0367697031   -0.8840460828   -1.4668783117
H       -1.5189970062   -1.5259270367   -0.7252999639
13   
From optimize.out: Frame 16 / 34, Energy=    -286.8925026921
C        1.4721114582    0.3341383336   -2.6172263426
C        1.1532233125   -0.9918062766   -2.5817036111
C       -0.1835239827   -1.5266601911   -2.4583039060
C       -1.2039808751    0.4580776891   -1.3394827632
C       -0.5558816321    1.4579992556   -2.1785804208
N        0.6249524625    1.4244536458   -2.7041354393
H        2.5253076170    0.6032511771   -2.6928402227
H        1.9873095110   -1.6951564441   -2.6440462682
H       -0.5974561812   -2.2241745622   -3.1833831546
H       -1.8566143760    0.8342358346   -0.5521717037
H       -1.1183013101    2.3803668976   -2.3536326136
C       -1.0365909643   -0.8798175939   -1.4739298101
H       -1.5550630463   -1.5227110830   -0.7564915074
13   
From optimize.out: Frame 17 / 34, Energy=    -286.8969539417
C        1.4742069335    0.3397759819   -2.6328487063
C        1.1514823682   -0.9886544714   -2.6000633489
C       -0.1715431356   -1.5322835089   -2.4378136317
C       -1.2132505542    0.4636706311   -1.3483956138
C       -0.5433336267    1.4741434235   -2.1545269488
N        0.6338056793    1.4365312380   -2.6916981731
H        2.5270801609    0.6044832429   -2.7230878223
H        1.9857384226   -1.6892144127   -2.6914866954
H       -0.5622788467   -2.3037098188   -3.0969933639
H       -1.9067140986    0.8299614208   -0.5922869829
H       -1.0872302745    2.4133192200   -2.2941643793
C       -1.0380107690   -0.8768217769   -1.4815576064
H       -1.5944602658   -1.5190044870   -0.7910044908
13   
From optimize.out: Frame 18 / 34, Energy=    -286.9013482942
C        1.4766797571    0.3453103044   -2.6502650433
C        1.1492002259   -0.9848220469   -2.6176173979
C       -0.1601427274   -1.5360811319   -2.4155581414
C       -1.2228744497    0.4690946869   -1.3561609291
C       -0.5299994096    1.4880684368   -2.1302806179
N        0.6424001635    1.4480067170   -2.6804535249
H        2.5285581131    0.6062029090   -2.7570705847
H        1.9815057338   -1.6838096328   -2.7366843921
H       -0.5224774034   -2.3742817200   -3.0048771019
H       -1.9543613030    0.8273238055   -0.6331097385
H       -1.0548080513    2.4425150900   -2.2334774590
C       -1.0426598273   -0.8753071292   -1.4893375941
H       -1.6355288281   -1.5200236061   -0.8310352386
13   
From optimize.out: Frame 19 / 34, Energy=    -286.9056068922
C        1.4775903651    0.3497298606   -2.6680076600
C        1.1468272869   -0.9814766831   -2.6344271257
C       -0.1498731703   -1.5397885361   -2.3940747672
C       -1.2296589373    0.4737597438   -1.3631527361
C       -0.5166145729    1.5008517951   -2.1030646209
N        0.6496080401    1.4591209796   -2.6687621342
H        2.5281325401    0.6066488714   -2.7927448869
H        1.9763695512   -1.6788040291   -2.7796040757
H       -0.4785324361   -2.4377625280   -2.9096761707
H       -1.9966495744    0.8234642556   -0.6741943664
H       -1.0257462197    2.4666871290   -2.1733845278
C       -1.0465659870   -0.8746063632   -1.4995672313
H       -1.6793948922   -1.5156278131   -0.8752674606
13   
From optimize.out: Frame 20 / 34, Energy=    -286.9097021796
C        1.4798894849    0.3542137291   -2.6904492526
C        1.1448925183   -0.9762240483   -2.6496763915
C       -0.1403129315   -1.5400226373   -2.3673778273
C       -1.2387746046    0.4787143461   -1.3682047277
C       -0.5018947333    1.5098351262   -2.0769489480
N        0.6575247912    1.4697600921   -2.6598449118
H        2.5278192364    0.6086359874   -2.8365705073
H        1.9687141147   -1.6749428995   -2.8162781668
H       -0.4298124516   -2.4887840037   -2.8097264298
H       -2.0385767132    0.8245756280   -0.7162005319
H       -0.9917007112    2.4875934353   -2.1087993397
C       -1.0574431779   -0.8774705018   -1.5087149186
H       -1.7248328285   -1.5236875711   -0.9271358104
13   
From optimize.out: Frame 21 / 34, Energy=    -286.9134660315
C        1.4757172769    0.3565855523   -2.7082046090
C        1.1418020248   -0.9721328619   -2.6639428765
C       -0.1335541661   -1.5461906120   -2.3474511859
C       -1.2399532323    0.4838709050   -1.3726992016
C       -0.4888716882    1.5176740556   -2.0465161582
N        0.6619888454    1.4795174247   -2.6486930578
H        2.5216306172    0.6063373156   -2.8753047867
H        1.9633127385   -1.6677253817   -2.8510659860
H       -0.3809063953   -2.5392451463   -2.7107985382
H       -2.0693139357    0.8218815518   -0.7556490017
H       -0.9665688322    2.5022242925   -2.0495168643
C       -1.0602907779   -0.8776715241   -1.5236896063
H       -1.7695004814   -1.5129288889   -0.9823958914
13   
From optimize.out: Frame 22 / 34, Energy=    -286.9168384373
C        1.4769217853    0.3580190414   -2.7347797681
C        1.1434267743   -0.9683446810   -2.6759356771
C       -0.1230931193   -1.5407401391   -2.3129365685
C       -1.2489238565    0.4872613173   -1.3790667182
C       -0.4759643037    1.5221752067   -2.0165065478
N        0.6715111344    1.4896956329   -2.6373559690
H        2.5171834053    0.6073145501   -2.9328718305
H        1.9545854387   -1.6696020456   -2.8809783443
H       -0.3234689736   -2.5664584182   -2.6078442008
H       -2.1061644955    0.8259838466   -0.8025479402
H       -0.9345346597    2.5151772791   -1.9779613116
C       -1.0753733504   -0.8879140146   -1.5350269783
H       -1.8206137858   -1.5203708931   -1.0421159090
13   
From optimize.out: Frame 23 / 34, Energy=    -286.9195383903
C        1.4689466720    0.3618143385   -2.7516792662
C        1.1381458749   -0.9591830557   -2.6849276174
C       -0.1190982152   -1.5507202968   -2.2890652008
C       -1.2522920653    0.4974550556   -1.3818309875
C       -0.4633420736    1.5200691041   -1.9908923179
N        0.6792414570    1.4984110007   -2.6265719351
H        2.5052452108    0.6041728392   -2.9798382586
H        1.9472111344   -1.6558620952   -2.9077429610
H       -0.2755934907   -2.6040636648   -2.5037473732
H       -2.1320681999    0.8338865985   -0.8400399309
H       -0.9005893258    2.5209313860   -1.9164078977
C       -1.0855754595   -0.8880608088   -1.5519061649
H       -1.8547395256   -1.5266537188   -1.1112778521
13   
From optimize.out: Frame 24 / 34, Energy=    -286.9215336137
C        1.4623120759    0.3603620286   -2.7685766521
C        1.1413413947   -0.9621940172   -2.6895762037
C       -0.1035596843   -1.5511623568   -2.2528697678
C       -1.2586076149    0.5004621783   -1.3980429103
C       -0.4569500675    1.5232792555   -1.9549424880
N        0.6918239221    1.5072916355   -2.6013495926
H        2.4878424706    0.5996647802   -3.0457631852
H        1.9386087684   -1.6599126286   -2.9444032267
H       -0.2104588182   -2.6219664974   -2.4032903942
H       -2.1606490214    0.8341367490   -0.8932764680
H       -0.8769606682    2.5283050719   -1.8437547861
C       -1.0940289375   -0.8981197546   -1.5704944438
H       -1.9052218261   -1.5079497619   -1.1695876450
13   
From optimize.out: Frame 25 / 34, Energy=    -286.9228531730
C        1.4570968060    0.3660419349   -2.7841555849
C        1.1415496056   -0.9575559606   -2.6864605946
C       -0.0882279651   -1.5548323002   -2.2114656592
C       -1.2751156967    0.5066012388   -1.4192366065
C       -0.4489063976    1.5202311380   -1.9324318948
N        0.7154399747    1.5172818409   -2.5721350041
H        2.4681768965    0.5967786989   -3.1187554937
H        1.9252772217   -1.6547552899   -2.9774307048
H       -0.1581493081   -2.6360808893   -2.3029911665
H       -2.1926296424    0.8414883940   -0.9441089041
H       -0.8362503986    2.5311981568   -1.7700916955
C       -1.1144858674   -0.9045897384   -1.5886056536
H       -1.9382832351   -1.5196105414   -1.2280588011
13   
From optimize.out: Frame 26 / 34, Energy=    -286.9237508868
C        1.4482980863    0.3717398966   -2.7916319831
C        1.1393354687   -0.9584702948   -2.6827782860
C       -0.0705834021   -1.5595156848   -2.1728748662
C       -1.2899284523    0.5121201731   -1.4532375651
C       -0.4382680381    1.5197526572   -1.8960593955
N        0.7470328750    1.5236710141   -2.5211820068
H        2.4393201592    0.5914060069   -3.1910387503
H        1.9079119600   -1.6511406381   -3.0187868932
H       -0.1114515833   -2.6458209020   -2.2082381374
H       -2.2197158668    0.8437246292   -0.9997597541
H       -0.8114624468    2.5323357901   -1.7161134537
C       -1.1250880895   -0.9077164864   -1.6109143603
H       -1.9599086767   -1.5198894785   -1.2733123117
13   
From optimize.out: Frame 27 / 34, Energy=    -286.9240822109
C        1.4452502967    0.3769529243   -2.7935600025
C        1.1435475591   -0.9603357422   -2.6793794353
C       -0.0546953361   -1.5639204551   -2.1405485366
C       -1.3116667290    0.5138040208   -1.5027592660
C       -0.4431152962    1.5188837016   -1.8931253507
N        0.7772877695    1.5200246380   -2.4696576824
H        2.4138847602    0.5936170775   -3.2485144181
H        1.8980913516   -1.6474610039   -3.0543259297
H       -0.0767545344   -2.6519111732   -2.1395454962
H       -2.2380033680    0.8466943598   -1.0415955965
H       -0.7829160136    2.5302600705   -1.6555675238
C       -1.1405111759   -0.9105567515   -1.6329702489
H       -1.9749072904   -1.5138549842   -1.2843782768
13   
From optimize.out: Frame 28 / 34, Energy=    -286.9242370961
C        1.4427829565    0.3835371668   -2.8019987660
C        1.1379089777   -0.9582475685   -2.6803824481
C       -0.0534660373   -1.5602218422   -2.1337365779
C       -1.3115313199    0.5120023657   -1.5012269516
C       -0.4290496962    1.5177765937   -1.8692844266
N        0.7914757435    1.5184786186   -2.4508949106
H        2.4119186682    0.5943019906   -3.2591757483
H        1.8926301436   -1.6461851828   -3.0545148052
H       -0.0827538817   -2.6479490717   -2.1391969616
H       -2.2459543165    0.8452360368   -1.0559689653
H       -0.7866102700    2.5316048740   -1.6753367284
C       -1.1429900835   -0.9106835408   -1.6324291888
H       -1.9688688908   -1.5274537579   -1.2817812849
13   
From optimize.out: Frame 29 / 34, Energy=    -286.9243065943
C        1.4465173540    0.3784168984   -2.7905659910
C        1.1385940647   -0.9618619535   -2.6817739185
C       -0.0568944333   -1.5611605895   -2.1465762590
C       -1.3089788954    0.5146325166   -1.4983486577
C       -0.4372275141    1.5192631359   -1.8788498181
N        0.7819248541    1.5149964647   -2.4563491480
H        2.4170151066    0.5942933844   -3.2422012569
H        1.8951694481   -1.6497176764   -3.0522813284
H       -0.0906242477   -2.6485038776   -2.1618647917
H       -2.2388934756    0.8476341585   -1.0439072162
H       -0.7981890746    2.5326311058   -1.6881488163
C       -1.1351575608   -0.9070090061   -1.6283936012
H       -1.9577636324   -1.5214178788   -1.2666669605
13   
From optimize.out: Frame 30 / 34, Energy=    -286.9243211369
C        1.4462966435    0.3799122956   -2.7938742640
C        1.1393359721   -0.9604534550   -2.6837151213
C       -0.0578936434   -1.5601085225   -2.1456712814
C       -1.3099000196    0.5131004801   -1.4988980333
C       -0.4381626275    1.5184494296   -1.8824002046
N        0.7838739287    1.5157710645   -2.4561285735
H        2.4189537686    0.5941828505   -3.2415626366
H        1.8963223710   -1.6487247786   -3.0524251815
H       -0.0908947290   -2.6475622365   -2.1589814483
H       -2.2399044365    0.8463080158   -1.0447698925
H       -0.7953451636    2.5317414550   -1.6843177225
C       -1.1366283687   -0.9095131107   -1.6277982773
H       -1.9605617020   -1.5209068053   -1.2653851266
13   
From optimize.out: Frame 31 / 34, Energy=    -286.9243255658
C        1.4464059298    0.3802918073   -2.7929371207
C        1.1391996486   -0.9606674815   -2.6829100618
C       -0.0561088091   -1.5605852991   -2.1436570859
C       -1.3102192696    0.5136054267   -1.4984122476
C       -0.4374752917    1.5182222831   -1.8806042746
N        0.7853081506    1.5153433400   -2.4538289407
H        2.4181352162    0.5940829877   -3.2430893016
H        1.8947398157   -1.6485258035   -3.0551304772
H       -0.0894050467   -2.6480031817   -2.1603148257
H       -2.2417764426    0.8470772859   -1.0477390959
H       -0.7953314655    2.5319379272   -1.6860516497
C       -1.1369708317   -0.9094976624   -1.6264150912
H       -1.9610096104   -1.5210849472   -1.2648375910
13   
From optimize.out: Frame 32 / 34, Energy=    -286.9243280822
C        1.4460602685    0.3806317456   -2.7923610982
C        1.1380615729   -0.9607757047   -2.6834871574
C       -0.0563747770   -1.5602832935   -2.1440495230
C       -1.3099247469    0.5140370836   -1.4992496973
C       -0.4375223420    1.5182943558   -1.8800647105
N        0.7862572420    1.5152879251   -2.4524776289
H        2.4178748708    0.5937402034   -3.2428584887
H        1.8937045456   -1.6486601349   -3.0553898119
H       -0.0894924962   -2.6477432589   -2.1599072004
H       -2.2416780545    0.8470878848   -1.0487034779
H       -0.7958638065    2.5320384981   -1.6867025476
C       -1.1362158767   -0.9094342899   -1.6265038039
H       -1.9593944064   -1.5220243321   -1.2641726178
13   
From optimize.out: Frame 33 / 34, Energy=    -286.9243302771
C        1.4461931543    0.3810030293   -2.7918807129
C        1.1375943098   -0.9608792538   -2.6844894044
C       -0.0569587157   -1.5602938569   -2.1453172854
C       -1.3094192196    0.5141372944   -1.4988238078
C       -0.4381855082    1.5182121771   -1.8806077233
N        0.7863304790    1.5152531369   -2.4528860985
H        2.4191200972    0.5935124474   -3.2404674271
H        1.8937619394   -1.6485811572   -3.0556138757
H       -0.0905625328   -2.6477506778   -2.1615987507
H       -2.2414382726    0.8469650254   -1.0486281913
H       -0.7968788219    2.5319839385   -1.6881916642
C       -1.1356927349   -0.9096515115   -1.6256224142
H       -1.9583721806   -1.5217139095   -1.2618004078
