13   
From optimize.out: Frame 1 / 2, Energy=    -286.8549487882
C        1.4686732685    0.4434648827   -0.3530738584
C        0.8844898150   -0.7852997800    0.2158355540
C       -0.7449175472   -0.8064664611    0.1739773918
C       -1.3117588051    0.4547650255   -0.3303380734
C       -0.5481144770    1.5423396026   -0.5757289614
N        0.8460300516    1.5355555592   -0.6348741906
H        2.5303145794    0.3995219587   -0.6079325517
H        1.4411642486   -1.6994013932    0.0000858207
H       -1.2584586499   -1.7272652578   -0.1086158969
H       -2.3826894973    0.4875523101   -0.5153848406
H       -1.0043020908    2.4797194493   -0.8832408489
C        0.0350901728   -0.7972998302    1.4092860838
H        0.0444789317   -1.5271860652    2.2100043717
13   
From optimize.out: Frame 2 / 3, Energy=    -286.8383125648
C        1.2554438109    0.3051387786    0.0798865210
C        0.5870576059   -1.1365746071   -0.0716404274
C       -0.7817308566   -1.0226423988   -0.5568615767
C       -1.0364777726    0.2319706169    0.2756994479
C       -0.5232097290    1.3795709905   -0.5854999817
N        0.7516877554    1.3833881429   -0.7332607110
H        2.3203727176    0.2896940281    0.2881425752
H        1.2443411958   -2.0002469418   -0.0922502474
H       -1.2747494198   -1.3919856153   -1.4530726234
H       -2.0030793770    0.3576662782    0.7685436230
H       -1.1661554240    2.0583343054   -1.1436336877
C        0.2567306395   -0.1634896600    1.0757518213
H        0.3697688540   -0.2908239177    2.1481952668
