13   
Frame   0 IRC: Energy =  -286.8734530000 ; +0.0000 kcal/mol
C        1.2055780378    0.1841777103    0.2113397718
C        0.7011930802   -1.1125093138   -0.4428680324
C       -0.6428956001   -1.0610442749   -0.4217674658
C       -1.0242747328    0.2665953407    0.2658455417
C       -0.4501532803    1.3805360264   -0.6310356952
N        0.8258924642    1.3493328889   -0.6876338794
H        2.2565302692    0.2187168464    0.4905250332
H        1.3341129080   -1.8907843106   -0.8526404414
H       -1.3505158891   -1.7757713849   -0.8263355910
H       -2.0548076402    0.3720326229    0.6036214505
H       -1.0437269409    2.1080811837   -1.1805589626
C        0.1247833438    0.2787993010    1.2810820808
H        0.1182839802   -0.3181626357    2.1904261903
13   
Frame   1 IRC: Energy =  -286.8716807049 ; +1.1121 kcal/mol
C        1.2059309159    0.1896903994    0.1956490295
C        0.6984283733   -1.1222627139   -0.4248311201
C       -0.6450395065   -1.0485749716   -0.4515975364
C       -1.0232503485    0.2657932594    0.2639216525
C       -0.4660990644    1.3899073021   -0.6221993967
N        0.8094715428    1.3550205523   -0.6979811060
H        2.2627028772    0.2309799171    0.4494408322
H        1.3315036926   -1.9545649711   -0.7097203906
H       -1.3479593615   -1.7288177242   -0.9209490860
H       -2.0501967398    0.3526166294    0.6174303405
H       -1.0720544515    2.1219950677   -1.1525910608
C        0.1380121775    0.2744346740    1.2732789082
H        0.1585498929   -0.3262174206    2.1801489337
13   
Frame   2 IRC: Energy =  -286.8667301866 ; +4.2186 kcal/mol
C        1.2053877278    0.1967868818    0.1772628074
C        0.6876664679   -1.1210531021   -0.4282886185
C       -0.6557711572   -1.0368485620   -0.5023300709
C       -1.0235548810    0.2602443344    0.2602727678
C       -0.4785172425    1.3990184661   -0.6065695369
N        0.7979325714    1.3689372204   -0.6911483387
H        2.2668695576    0.2387732431    0.4122673823
H        1.3233013002   -1.9865194605   -0.5581234422
H       -1.3533830380   -1.7027872425   -1.0084454055
H       -2.0413302396    0.3457494662    0.6395123392
H       -1.0901642923    2.1184291881   -1.1468812233
C        0.1513498536    0.2389586060    1.2605864117
H        0.2102133721   -0.3196890389    2.1918849275
13   
Frame   3 IRC: Energy =  -286.8552935811 ; +11.3952 kcal/mol
C        1.2215092393    0.2247639930    0.1473393839
C        0.6688312177   -1.1064795536   -0.3776536876
C       -0.6858691606   -1.0248855934   -0.5394052398
C       -1.0280565326    0.2540618689    0.2516992953
C       -0.4814605176    1.4061487199   -0.5955595920
N        0.7966187980    1.3853184065   -0.6912296288
H        2.2809099380    0.2541803555    0.4000047727
H        1.3105986191   -1.9712215490   -0.4584236340
H       -1.3652014909   -1.6969319032   -1.0558446985
H       -2.0347341783    0.3517498155    0.6577824087
H       -1.0957379630    2.1110424094   -1.1522697489
C        0.1692784260    0.1115029527    1.2093572210
H        0.2433136048   -0.2992499220    2.2042031482
13   
Frame   4 IRC: Energy =  -286.8482168367 ; +15.8359 kcal/mol (Transition State)
C        1.2400325455    0.2682286268    0.1249579830
C        0.6579104062   -1.0882494134   -0.2748530440
C       -0.7219576386   -1.0030301515   -0.5644183831
C       -1.0343994048    0.2520005535    0.2442996233
C       -0.4840900063    1.4085309387   -0.5932721334
N        0.7968426178    1.3986710928   -0.6934989096
H        2.2910545848    0.2634130491    0.3961845351
H        1.3025366423   -1.9543630268   -0.4071016302
H       -1.3755104011   -1.6944197737   -1.0760595686
H       -2.0323526168    0.3565999345    0.6686588542
H       -1.0989034333    2.1073322867   -1.1563160838
C        0.1977723874   -0.0282003585    1.1408874608
H        0.2610643169   -0.2865137583    2.1905312961
13   
Frame   5 IRC: Energy =  -286.8547699439 ; +11.7238 kcal/mol
C        1.2568044220    0.3085936771    0.1107236054
C        0.6332986223   -1.0874833838   -0.1703836164
C       -0.7434693796   -0.9789740835   -0.6059097333
C       -1.0372095918    0.2494850952    0.2374620101
C       -0.4884908130    1.4124095124   -0.5909593116
N        0.7921408461    1.4168761114   -0.6905957434
H        2.3044818662    0.2785098772    0.3873381867
H        1.2916865911   -1.9371519760   -0.3373046936
H       -1.3892468743   -1.6913943104   -1.0954469378
H       -2.0264184386    0.3625684307    0.6823387203
H       -1.1046640999    2.1040500306   -1.1606889784
C        0.2262355515   -0.1482795627    1.0778115560
H        0.2848512980   -0.2892094181    2.1556149360
13   
Frame   6 IRC: Energy =  -286.8574196131 ; +10.0611 kcal/mol
C        1.2647043059    0.3240910733    0.0976678714
C        0.6199693319   -1.0951469837   -0.1447530936
C       -0.7444997793   -0.9687284374   -0.6415787256
C       -1.0347058364    0.2487589266    0.2286939600
C       -0.4974373897    1.4226220524   -0.5858083769
N        0.7828241355    1.4337501818   -0.6881357183
H        2.3180021256    0.3066945394    0.3542224662
H        1.2733060868   -1.9591493028   -0.1924737751
H       -1.4020171668   -1.6662809014   -1.1398042108
H       -2.0147193812    0.3567455540    0.6949720760
H       -1.1217042551    2.1100800042   -1.1528400208
C        0.2365046444   -0.1693974914    1.0509562503
H        0.3197731785   -0.3440392148    2.1188812973
13   
Frame   7 IRC: Energy =  -286.8584973718 ; +9.3848 kcal/mol
C        1.2634838761    0.3241384214    0.0900834708
C        0.6098819801   -1.1119920717   -0.1137225384
C       -0.7605708372   -1.0057442068   -0.5866119765
C       -1.0360095360    0.2413297222    0.2444938469
C       -0.5098164982    1.4062228003   -0.5900617630
N        0.7696646427    1.4169016955   -0.7081687990
H        2.3221382842    0.3111505322    0.3244418774
H        1.2679646132   -1.9732611139   -0.1414330974
H       -1.3626358711   -1.5787896085   -1.2799905232
H       -2.0112138741    0.3600562187    0.7194518074
H       -1.1396021003    2.0982830765   -1.1455972542
C        0.2480955168   -0.1595663241    1.0595875633
H        0.3386198038   -0.3287291419    2.1275273859
13   
Frame   8 IRC: Energy =  -286.8593350000 ; +8.8592 kcal/mol
C        1.2584822354    0.3164438936    0.0865559111
C        0.5979072681   -1.1278880067   -0.0834035327
C       -0.7730719271   -1.0246632016   -0.5592494543
C       -1.0373097221    0.2330139246    0.2645803952
C       -0.5239470686    1.3852493684   -0.5918747669
N        0.7543391302    1.3950458714   -0.7252482598
H        2.3213406786    0.3044773379    0.3014341402
H        1.2601104007   -1.9865217759   -0.1063006015
H       -1.3029118093   -1.4628244767   -1.3997880263
H       -2.0067212743    0.3585624280    0.7500180765
H       -1.1622689805    2.0660484955   -1.1516420647
C        0.2544347252   -0.1568619970    1.0722710225
H        0.3596163438   -0.3000818616    2.1426471607
