13   
From qcfsm.out: Frame 85 / 85, Energy=       0.0000000000
C        1.3330909344    0.3451915530   -0.0295625002
C        0.6653534387   -1.0082130837   -0.1126171246
C       -0.7399892168   -1.0149462784   -0.5129873173
C       -1.1279057404    0.3073813230    0.0793849602
C       -0.4805224829    1.4724794616   -0.5972945737
N        0.7990610977    1.4856192549   -0.6721529640
H        2.4224974222    0.3652098374    0.0658887410
H        1.3293051093   -1.8746137160   -0.0698918321
H       -1.3629902135   -1.8698990047   -0.7285805944
H       -2.1887818873    0.4878354428    0.3106099395
H       -1.0518929446    2.3297196736   -0.9609717920
C        0.2088156735   -0.2565443124    1.1149653831
H        0.1674038425   -0.7771549042    2.0876103197
