13   
From optimize.out: Frame 1 / 2, Energy=    -286.8505497780
C        0.6483972425    0.0835953167    0.2973282899
C        1.0785925012   -1.2142706957   -0.3622277224
C        0.4245080594   -2.3505531995   -0.3079803595
C       -1.3987490325    1.1291146429    0.3406471814
C       -0.4703795498    1.7538297523   -0.6125607587
N        0.6886141214    1.1917338364   -0.6756297385
H        1.3933579009    0.3309098018    1.0738806583
H        2.0215288452   -1.1395391840   -0.9164208038
H        0.5563983417   -3.3576621815   -0.6828366767
H       -2.4150626455    1.4514962141    0.5368395216
H       -0.7045498392    2.6207759088   -1.2294916450
C       -0.7336122001    0.1003825362    0.8960211307
H       -1.0890437453   -0.5998127484    1.6424309228
