13   
From qcts2.out: Frame 3 / 3, Energy=    -286.8520214090
C        1.8427010984    0.1081025876   -0.0184222556
C        1.0330393861   -0.8689892067   -0.5075177356
C       -0.3255546516   -0.2602360941   -0.7259267236
C       -1.3349030435   -0.6492725371    0.3398686026
C       -0.0428797709    1.1760281990   -0.2550597715
N        1.2152048559    1.3517651455    0.1188995472
H        2.8847464442    0.0140966168    0.2661709222
H        1.2880201138   -1.9086715577   -0.6695806764
H       -0.6913161218   -0.3485347101   -1.7592047767
H       -1.8299743237   -1.6211385889    0.3893565052
H       -0.6794583636    2.0272348480   -0.4764523733
C       -1.4240009589    0.3597221675    1.1890541822
H       -1.9356246645    0.6198931304    2.1088145530
