13   
From optimize.out: Frame 1 / 2, Energy=    -286.8549308504
C        1.6774688141    0.3774503491   -0.2344494559
C        1.1088240356   -0.8462505356   -0.3004518600
C       -0.3292781738   -1.0590548081   -0.0694932338
C       -1.1502135752    0.3399325069    0.0839446471
C       -0.3165333041    1.5350772917   -0.1445994920
N        0.9694900417    1.5798387480   -0.2042314064
H        2.7527781877    0.4947146914   -0.3403912610
H        1.7151986111   -1.7167416076   -0.5388188414
H       -0.7972305314   -1.8957382884   -0.5914925113
H       -2.1699032729    0.4131518336   -0.2992776960
H       -0.8541783408    2.4674113564   -0.3341600216
C       -0.9261070981   -0.6008677321    1.1838200781
H       -1.6803153939   -1.0889238048    1.7896010540
13   
From optimize.out: Frame 2 / 3, Energy=    -286.8584720586
C        1.5767691825    0.4213666559   -0.1576053980
C        0.8156650881   -0.8229764499    0.1096785825
C       -0.5524954911   -0.9776632679   -0.5327645269
C       -1.1159425830    0.3309439894   -0.0016188268
C       -0.3588991119    1.5756439242   -0.2754661395
N        0.9707744973    1.5920627324   -0.3456524051
H        2.6638320176    0.4005851631   -0.2041885756
H        1.3918924943   -1.7363941838    0.2476437722
H       -0.9903885849   -1.7662940803   -1.1286850695
H       -2.2009376715    0.4097478073    0.0414728889
H       -0.8860700760    2.5147907341   -0.4321474119
C       -0.4778645425   -0.7121652157    0.9002041232
H       -0.8363352189   -1.2296478088    1.7791289863
