13   
From qcts2.out: Frame 52 / 52, Energy=    -286.8185282075
C        1.6445617029    0.3786580278   -0.2370173153
C        1.1281684884   -0.9184022163   -0.1225559896
C       -0.2413548069   -1.1284696510   -0.1954104097
C       -1.1790139847    0.0212084784   -0.2578746698
C       -0.4448083579    1.3265912322   -0.4128531363
N        0.8529826514    1.4837966561   -0.3755251412
H        2.7146509195    0.5612888433   -0.2231432765
H        1.8062071337   -1.7602026393   -0.0152822002
H       -0.6590923163   -2.1288577673   -0.1478199627
H       -2.0187033624   -0.0863661534   -0.9507864344
H       -1.0522621061    2.2274300884   -0.4890760491
C       -1.6599414823    0.0114337368    1.1959252804
H       -0.9903681340   -0.0204712476    2.0601764226
