13   
From optimize.out: Frame 1 / 3, Energy=    -286.7710800071
C        1.3199927695    0.0323587386    0.3281901696
C        1.0329883246   -1.3109846868    0.8737598926
C        1.9549551306   -2.0601167609    1.4488672980
C       -1.7920864061    1.7600014250   -0.5540667051
C       -0.8473716722    0.5861190526   -0.4691745020
N        0.5371826309    0.8630526150   -0.2531778513
H        2.3604211170    0.3476537233    0.4419025423
H        0.0132172740   -1.6993902167    0.7914556442
H        2.0130048425   -3.0381901388    1.9094705924
H       -2.2838619616    2.5321308192    0.0185564313
H       -1.2366973216   -0.3671524337   -0.0953815514
C       -1.5028046113    1.1993653051   -1.6817275849
H       -1.5689401162    1.1551525582   -2.7586743757
13   
From optimize.out: Frame 2 / 3, Energy=    -286.7710837686
C        1.3227048826    0.0315988847    0.3234485202
C        1.0324077685   -1.3101134747    0.8713643353
C        1.9508499439   -2.0571555997    1.4548544609
C       -1.7909336124    1.7561790490   -0.5496820451
C       -0.8437254988    0.5835016126   -0.4747261701
N        0.5407190845    0.8624454316   -0.2584991777
H        2.3625974638    0.3470025352    0.4410738102
H        0.0123950696   -1.6973607454    0.7864604495
H        2.0059421019   -3.0329948182    1.9205575255
H       -2.2814222297    2.5246326912    0.0289279472
H       -1.2292141474   -0.3724631300   -0.1035624251
C       -1.5057080235    1.2019437253   -1.6817269530
H       -1.5766128028    1.1627838386   -2.7584902778
