13   
From optimize.out: Frame 1 / 2, Energy=    -286.8505804601
C        0.6822899434    0.0415096546    0.2203829730
C        0.9717214916   -1.2328741331   -0.5520894346
C        0.2779670773   -2.3441806303   -0.4771905431
C       -1.2956960677    1.1615508920    0.5651641003
C       -0.4600398951    1.8024582821   -0.4603410045
N        0.6565619423    1.2002719195   -0.6922197799
H        1.5248037587    0.2156299495    0.9124935218
H        1.8444104259   -1.1636926530   -1.2119922046
H        0.3185699088   -3.3329450244   -0.9163683996
H       -2.2657901921    1.5115546485    0.8994236281
H       -0.7264711380    2.7111917997   -0.9990922159
C       -0.6164580303    0.0781587458    0.9823380720
H       -0.9118692246   -0.6486334510    1.7294912871
