13   
From optimize.out: Frame 2 / 3, Energy=    -286.8754839822
C        1.6788940560    0.4831173748   -0.3254226191
C        1.1472680733   -0.8115037871   -0.4356721793
C       -0.3414768064   -0.7023947536   -0.4748746117
C       -1.2147508122    0.6013225828    0.9533003207
C       -0.5218949549    0.8645749668   -0.3840361394
N        0.7983363325    1.4779555792   -0.2909041369
H        2.7415504446    0.7077504902   -0.2444427556
H        1.7213677897   -1.7315588368   -0.4442419245
H       -0.8250289056   -1.2467896183   -1.2965906657
H       -1.6238300798    1.2813387197    1.6943853014
H       -1.1308946656    1.3566780121   -1.1523330968
C       -1.0770375642   -0.7266828719    0.8758334228
H       -1.3525029078   -1.5538078583    1.5249990846
13   
From optimize.out: Frame 1 / 3, Energy=    -286.8754792730
C        1.6744013705    0.4854011010   -0.3425314918
C        1.1454049892   -0.8122552525   -0.4250535881
C       -0.3499978883   -0.7046657728   -0.4859899724
C       -1.1976173204    0.5913664757    0.9580504487
C       -0.5214777774    0.8661185947   -0.3910310456
N        0.7897493115    1.4777182882   -0.3260964210
H        2.7353398729    0.7178262900   -0.2672033667
H        1.7135201553   -1.7290625774   -0.3316828144
H       -0.8154189197   -1.2284694783   -1.3303240850
H       -1.5694203966    1.2673014952    1.7205374561
H       -1.1549186890    1.3728676600   -1.1292676895
C       -1.0815282076   -0.7379307497    0.8546454502
H       -1.3680365005   -1.5662160738    1.4959471196
13   
From optimize.out: Frame 20 / 21, Energy=    -286.8754792730
C        1.6643812465    0.4887950453   -0.3467015266
C        1.1325045353   -0.8063500815   -0.4079375905
C       -0.3660848021   -0.7082096851   -0.5039750219
C       -1.1748206937    0.5782936960    0.9593714983
C       -0.5192497261    0.8744417037   -0.3932747957
N        0.7832586176    1.4833865976   -0.3730223932
H        2.7218873885    0.7258584413   -0.2606064870
H        1.6956825515   -1.7140026240   -0.2207737491
H       -0.8253121438   -1.1891753834   -1.3773896733
H       -1.4837112881    1.2456892916    1.7564558389
H       -1.1779205108    1.3454462056   -1.1335807823
C       -1.0837220406   -0.7501206137    0.8296937248
H       -1.3668931343   -1.5740525933    1.4717409577
13   
From optimize.out: Frame 18 / 21, Energy=    -286.8753728372
C        1.6513443392    0.4933745265   -0.3347972783
C        1.1213206640   -0.7969875212   -0.3924434671
C       -0.3758731420   -0.7162458587   -0.5164924362
C       -1.1450456403    0.5630561201    0.9554787496
C       -0.5207882296    0.8675371483   -0.4046337905
N        0.7703336309    1.4821328236   -0.4325600032
H        2.7045419480    0.7358146386   -0.2301287806
H        1.6811370814   -1.6931627509   -0.1407568301
H       -0.8398625371   -1.1384285628   -1.4162285152
H       -1.3829097344    1.2282829522    1.7784758084
H       -1.2028808048    1.3174614662   -1.1363663316
C       -1.0895741873   -0.7627446959    0.8126561805
H       -1.3717433880   -1.5800902861    1.4577966943
13   
From optimize.out: Frame 16 / 21, Energy=    -286.8748748160
C        1.6379128274    0.4997566523   -0.3210280311
C        1.1109401862   -0.7858701007   -0.3779524004
C       -0.3810347142   -0.7341198230   -0.5239679216
C       -1.1166091409    0.5462224714    0.9483445208
C       -0.5238621992    0.8678992586   -0.4137716982
N        0.7605799159    1.4804016965   -0.5010004321
H        2.6880298603    0.7431183491   -0.1970602581
H        1.6682721671   -1.6663860567   -0.0668448262
H       -0.8533946637   -1.0877347318   -1.4484449686
H       -1.2771924498    1.2052569505    1.7958647603
H       -1.2290084949    1.2931038353   -1.1363781818
C       -1.1012873308   -0.7755363414    0.7965139123
H       -1.3833459635   -1.5861121604    1.4457255248
13   
From optimize.out: Frame 12 / 21, Energy=    -286.8687055824
C        1.6250772340    0.5075414396   -0.3092053009
C        1.1058645806   -0.7742707028   -0.3666931233
C       -0.3755352067   -0.7668694073   -0.5259288498
C       -1.0926452264    0.5295033630    0.9421228935
C       -0.5319413007    0.8911860571   -0.4144591411
N        0.7573628739    1.4756397468   -0.5838065721
H        2.6754450461    0.7456096310   -0.1708138627
H        1.6643466603   -1.6349753528   -0.0011372489
H       -0.8520647958   -1.0517010800   -1.4697413866
H       -1.1728851565    1.1728275164    1.8154560541
H       -1.2593991732    1.2824004346   -1.1311768604
C       -1.1271255641   -0.7856834487    0.7813281157
H       -1.4164999715   -1.5912081967    1.4340552826
13   
From optimize.out: Frame 11 / 21, Energy=    -286.8625629266
C        1.6149265924    0.5120056875   -0.3095343230
C        1.1113778943   -0.7727663815   -0.3635220164
C       -0.3570492011   -0.8236054473   -0.5218696447
C       -1.0865593590    0.5206845938    0.9338284567
C       -0.5447676166    0.9445529881   -0.4053191898
N        0.7609057539    1.4756140879   -0.6535277994
H        2.6702733582    0.7385613217   -0.1685225706
H        1.6815380637   -1.6074341057    0.0442761180
H       -0.8284158447   -1.0655038141   -1.4786762988
H       -1.1024523916    1.1369669189    1.8332466532
H       -1.2882978010    1.3222679136   -1.1102764591
C       -1.1650583488   -0.7906554132    0.7685547019
H       -1.4664210998   -1.5906883498    1.4313423718
13   
From optimize.out: Frame 10 / 21, Energy=    -286.8540420596
C        1.6081796960    0.5126285958   -0.3233273200
C        1.1235619063   -0.7811023147   -0.3648997778
C       -0.3317595221   -0.8861051008   -0.5197986060
C       -1.0950057239    0.5212126239    0.9273051626
C       -0.5615443338    1.0071010738   -0.3888698471
N        0.7702301216    1.4833176605   -0.7027629922
H        2.6703484620    0.7251577923   -0.1854039402
H        1.7087067157   -1.5868465434    0.0793640982
H       -0.7892728494   -1.1203462829   -1.4836326492
H       -1.0637012430    1.1042237343    1.8508493454
H       -1.3151056513    1.3950208497   -1.0754725169
C       -1.2065242274   -0.7896202484    0.7553008872
H       -1.5181133506   -1.5846418401    1.4313481561
13   
From optimize.out: Frame 8 / 21, Energy=    -286.8275226693
C        1.6096937166    0.5124850343   -0.3436435332
C        1.1404594952   -0.7922744152   -0.3712432034
C       -0.3011172938   -0.9403445057   -0.5211354155
C       -1.1161396777    0.5264956807    0.9248106797
C       -0.5854189600    1.0601944355   -0.3682473542
N        0.7933888039    1.4982245228   -0.7451637278
H        2.6798389582    0.7061103675   -0.2089768499
H        1.7384908700   -1.5701353130    0.1054493794
H       -0.7429227613   -1.1796095324   -1.4895048017
H       -1.0458798803    1.0772226985    1.8687223445
H       -1.3464996389    1.4653864764   -1.0347095644
C       -1.2527983486   -0.7853126220    0.7470370656
H       -1.5710952833   -1.5784428275    1.4366049810
13   
From optimize.out: Frame 7 / 21, Energy=    -286.8081201075
C        1.6224725611    0.5113358063   -0.3684419475
C        1.1627569111   -0.8059866164   -0.3826678637
C       -0.2656407969   -0.9837867235   -0.5259417818
C       -1.1495254026    0.5362395673    0.9273522150
C       -0.6168821658    1.1033948076   -0.3447126997
N        0.8295669978    1.5180981578   -0.7823108196
H        2.7010759255    0.6825564171   -0.2362529639
H        1.7707156430   -1.5597204364    0.1202067330
H       -0.6917249267   -1.2331807566   -1.4972794879
H       -1.0504181792    1.0590263945    1.8875470106
H       -1.3854388026    1.5246053465   -0.9914595389
C       -1.3020448259   -0.7786203131    0.7456707339
H       -1.6249129388   -1.5739616512    1.4482904105
13   
From optimize.out: Frame 6 / 21, Energy=    -286.7798769413
C        1.6432241894    0.5084583942   -0.3949163754
C        1.1899601118   -0.8236609445   -0.3971398896
C       -0.2270516729   -1.0183405406   -0.5335557671
C       -1.1895640434    0.5508914880    0.9346944244
C       -0.6528937158    1.1401042086   -0.3204712964
N        0.8680454016    1.5376876279   -0.8141469520
H        2.7297600887    0.6585439802   -0.2643476855
H        1.8052321604   -1.5578067945    0.1256150100
H       -0.6369923085   -1.2793319754   -1.5075074964
H       -1.0701521050    1.0505292276    1.9079635534
H       -1.4308842250    1.5731842497   -0.9477252246
C       -1.3507289993   -0.7693770665    0.7483080232
H       -1.6779548822   -1.5708818549    1.4632296761
13   
From optimize.out: Frame 5 / 21, Energy=    -286.7419989578
C        1.6680401555    0.5039413123   -0.4212505242
C        1.2212522714   -0.8453011278   -0.4130018010
C       -0.1861109064   -1.0460379478   -0.5423450179
C       -1.2322163421    0.5700409772    0.9460348163
C       -0.6911057242    1.1728783301   -0.2967244572
N        0.9014605235    1.5537152359   -0.8433895160
H        2.7621121933    0.6358969540   -0.2917266605
H        1.8413346900   -1.5637801164    0.1254661167
H       -0.5782320948   -1.3176198541   -1.5196654126
H       -1.0962060358    1.0499095076    1.9304450408
H       -1.4816679342    1.6127605808   -0.9036654827
C       -1.3981074278   -0.7572788099    0.7517512909
H       -1.7305533683   -1.5691250421    1.4780716074
13   
From optimize.out: Frame 4 / 21, Energy=    -286.6973519848
C        1.6929301258    0.4972160869   -0.4461472181
C        1.2566325444   -0.8696187493   -0.4292728513
C       -0.1423500515   -1.0641368306   -0.5506463502
C       -1.2751982035    0.5931041977    0.9609996378
C       -0.7311734335    1.2005481131   -0.2746296599
N        0.9229014782    1.5599920845   -0.8747511001
H        2.7945723599    0.6142823287   -0.3162374988
H        1.8764137364   -1.5759914154    0.1249095467
H       -0.5105679262   -1.3449942104   -1.5332268581
H       -1.1177744605    1.0539931473    1.9554608985
H       -1.5395585366    1.6419956092   -0.8566250634
C       -1.4441442879   -0.7397268580    0.7522211129
H       -1.7826833450   -1.5666635036    1.4879454040
13   
From optimize.out: Frame 1 / 21, Energy=    -286.5896370306
C        1.7152433960    0.4875913851   -0.4690082303
C        1.2942874422   -0.8962306579   -0.4460222117
C       -0.0975621167   -1.0773049263   -0.5578963359
C       -1.3174355186    0.6196012977    0.9755983005
C       -0.7699387233    1.2278324150   -0.2534082892
N        0.9315642128    1.5631572473   -0.9083771301
H        2.8253102180    0.5904250808   -0.3372922477
H        1.9112395221   -1.5933885928    0.1215900450
H       -0.4366774173   -1.3667857715   -1.5463925604
H       -1.1391738449    1.0636969069    1.9790814809
H       -1.5993072891    1.6686039921   -0.8050213513
C       -1.4860069579   -0.7211687964    0.7496816421
H       -1.8315429231   -1.5660295800    1.4974668882
13   
C6H6N->C6H6N atoms 1-13 frame 309 charge +0.000 sz -1.000 sz^2 2.121
C        1.7267891633    0.4756454430   -0.4772626758
C        1.3235532005   -0.9271713534   -0.4493860194
C       -0.0817660582   -1.0932023151   -0.5494272806
C       -1.3456003866    0.6416852223    0.9754501075
C       -0.7916764213    1.2581490092   -0.2427467973
N        0.9309713805    1.5491713410   -0.9216022516
H        2.8510799061    0.6144051382   -0.3721483730
H        1.9434622624   -1.6316009993    0.1185714188
H       -0.3525156838   -1.3566045462   -1.5541976785
H       -1.1150107637    1.0637020192    1.9768114067
H       -1.6626578451    1.6897407357   -0.7631530810
C       -1.5410342348   -0.7162824931    0.7566786029
H       -1.8855945193   -1.5676372014    1.5024126212
13   
C6H6N->C6H6N atoms 1-13 frame 310 charge -0.000 sz -1.000 sz^2 2.078
C        1.7228927897    0.4642128397   -0.4638797735
C        1.3320364366   -0.9504552018   -0.4299515807
C       -0.1114129518   -1.1096528099   -0.5211945964
C       -1.3422647895    0.6446084997    0.9603908274
C       -0.7820486349    1.2792883107   -0.2478166756
N        0.9225564776    1.5157009427   -0.8989586909
H        2.8516722959    0.6959050174   -0.4165540816
H        1.9630946443   -1.6818405246    0.1154771486
H       -0.2973201649   -1.3137044469   -1.5545358069
H       -1.0483690325    1.0472294317    1.9438786761
H       -1.6966742060    1.6986023918   -0.7555368519
C       -1.5925152933   -0.7327889638    0.7782709461
H       -1.9216475712   -1.5571054870    1.4904104591
13   
C6H6N->C6H6N atoms 1-13 frame 311 charge +0.000 sz -1.000 sz^2 2.039
C        1.7037190784    0.4588315632   -0.4410260104
C        1.3183968991   -0.9510779665   -0.4026466414
C       -0.1518104133   -1.1198327137   -0.4978768815
C       -1.3128378611    0.6282941685    0.9425864407
C       -0.7527224726    1.2826584753   -0.2610389232
N        0.9037276559    1.4899685750   -0.8645718023
H        2.8166663133    0.7578868580   -0.4350374532
H        1.9577857754   -1.7008181085    0.1144837937
H       -0.3058773812   -1.2785507759   -1.5578299329
H       -0.9951136253    1.0285969677    1.9127285017
H       -1.6721386331    1.6953692653   -0.7814101784
C       -1.5985305141   -0.7512903764    0.7938114024
H       -1.9112648213   -1.5400359319    1.4778276848
13   
From optimize.out: Frame 1 / 37, Energy=    -286.5877433464
C        1.6719127077    0.4658952147   -0.4194798118
C        1.2812085015   -0.9241840437   -0.3883720104
C       -0.1803216407   -1.1127753909   -0.5006872102
C       -1.2713792542    0.6037989469    0.9281731478
C       -0.7182390594    1.2625528040   -0.2785056020
N        0.8809605498    1.4911937670   -0.8410349574
H        2.7730987216    0.7547029134   -0.4021865225
H        1.9191783120   -1.6700116045    0.1233950626
H       -0.3760187031   -1.2699069668   -1.5575386448
H       -0.9763460146    1.0186244389    1.8995789807
H       -1.6071210277    1.6764681738   -0.8278430084
C       -1.5441348780   -0.7577954350    0.7858820259
H       -1.8527982148   -1.5385628178    1.4786185503
13   
From optimize.out: Frame 2 / 37, Energy=    -286.6430874522
C        1.6371042209    0.4700705509   -0.3960287917
C        1.2456272042   -0.9003281565   -0.3752104854
C       -0.2083225555   -1.1043132684   -0.5040674834
C       -1.2293927541    0.5830612800    0.9142324131
C       -0.6830255770    1.2437714756   -0.2973199893
N        0.8452412025    1.4866439040   -0.8180596511
H        2.7271939650    0.7531634691   -0.3653887367
H        1.8810097500   -1.6441744125    0.1320123312
H       -0.4404204666   -1.2613118422   -1.5555413746
H       -0.9519339769    1.0117455560    1.8848860034
H       -1.5448099346    1.6591818157   -0.8688760177
C       -1.4871694515   -0.7621951401    0.7739415455
H       -1.7911016265   -1.5353152315    1.4754202369
13   
From optimize.out: Frame 3 / 37, Energy=    -286.6952452699
C        1.6014008319    0.4725802685   -0.3721886467
C        1.2112520821   -0.8797032691   -0.3617169738
C       -0.2360124770   -1.0988633858   -0.5060339872
C       -1.1863850647    0.5652342330    0.8994401254
C       -0.6470518012    1.2300496613   -0.3169787749
N        0.8018723763    1.4803426891   -0.7939749169
H        2.6804677693    0.7530490800   -0.3279741835
H        1.8453437328   -1.6219390454    0.1397586319
H       -0.5037708091   -1.2565303512   -1.5509126826
H       -0.9268378422    1.0068179107    1.8692488343
H       -1.4835849072    1.6484978952   -0.9075633576
C       -1.4287803060   -0.7672784169    0.7589678011
H       -1.7279135850   -1.5322572695    1.4699281307
13   
From optimize.out: Frame 4 / 37, Energy=    -286.7425620681
C        1.5658315369    0.4725103146   -0.3491314708
C        1.1785399449   -0.8635721966   -0.3477019144
C       -0.2629361512   -1.1013426485   -0.5056493408
C       -1.1435159652    0.5509850703    0.8822804688
C       -0.6118122782    1.2269196916   -0.3363004883
N        0.7520924698    1.4732585480   -0.7681417083
H        2.6339086836    0.7525085341   -0.2909475309
H        1.8143515932   -1.6033817031    0.1462102581
H       -0.5670270735   -1.2627579586   -1.5419314016
H       -0.9059102291    1.0032341528    1.8524494033
H       -1.4246136389    1.6529645097   -0.9417805387
C       -1.3673042338   -0.7733481736    0.7388560987
H       -1.6616046585   -1.5279781406    1.4617881649
13   
From optimize.out: Frame 6 / 37, Energy=    -286.8072292042
C        1.5354637517    0.4677837467   -0.3305721419
C        1.1499056651   -0.8538933601   -0.3338087331
C       -0.2870754004   -1.1193408410   -0.5007403732
C       -1.1067488720    0.5415334302    0.8613401054
C       -0.5827241915    1.2433794861   -0.3513231164
N        0.7038727919    1.4680644495   -0.7419118052
H        2.5936587625    0.7462318695   -0.2581987269
H        1.7933918237   -1.5900292774    0.1478143483
H       -0.6287683335   -1.2923875734   -1.5249019723
H       -0.9059120896    1.0015762442    1.8349887766
H       -1.3730707856    1.6874390089   -0.9649123899
C       -1.3005600197   -0.7805696546    0.7112431218
H       -1.5914331027   -1.5197875286    1.4509829068
13   
From optimize.out: Frame 7 / 37, Energy=    -286.8220107331
C        1.5204272214    0.4568786379   -0.3228404602
C        1.1325398415   -0.8527341548   -0.3246889925
C       -0.3017388934   -1.1535103446   -0.4908916605
C       -1.0887154036    0.5384131597    0.8404743182
C       -0.5684480733    1.2795701693   -0.3550527976
N        0.6746153304    1.4670121869   -0.7202779118
H        2.5722857857    0.7297717372   -0.2384865409
H        1.7915520523   -1.5874146234    0.1327350301
H       -0.6782683342   -1.3492378273   -1.4992923323
H       -0.9550428619    1.0068142063    1.8196597315
H       -1.3372891893    1.7568526594   -0.9670081486
C       -1.2339077890   -0.7872043622    0.6828481038
H       -1.5280096866   -1.5052114444    1.4428216607
13   
From optimize.out: Frame 9 / 37, Energy=    -286.8424465427
C        1.5188464752    0.4426438274   -0.3257348890
C        1.1296132364   -0.8592969649   -0.3249373217
C       -0.3021391180   -1.1925423109   -0.4821671071
C       -1.0903664966    0.5411081122    0.8261106991
C       -0.5661589737    1.3186262524   -0.3466685040
N        0.6653218699    1.4663954296   -0.7048789438
H        2.5677102992    0.7106226979   -0.2347769366
H        1.8086265117   -1.5966943000    0.0962654377
H       -0.7047156625   -1.4183302022   -1.4738490330
H       -1.0457904321    1.0196211419    1.8070757983
H       -1.3130854026    1.8409122022   -0.9474862490
C       -1.1806624570   -0.7889611793    0.6664890297
H       -1.4871998499   -1.4841047063    1.4445580194
13   
From optimize.out: Frame 10 / 37, Energy=    -286.8508919661
C        1.5197215686    0.4287942214   -0.3334515386
C        1.1332919414   -0.8698305684   -0.3291885142
C       -0.2946633568   -1.2304706788   -0.4747939934
C       -1.0988377747    0.5468138653    0.8149166627
C       -0.5659366715    1.3547562147   -0.3323114217
N        0.6620470004    1.4642826686   -0.6930693011
H        2.5671463072    0.6954991806   -0.2417720721
H        1.8327662136   -1.6101019106    0.0524625101
H       -0.7155516239   -1.4913120227   -1.4493048285
H       -1.1436651633    1.0308300498    1.7919297461
H       -1.2905116398    1.9273759016   -0.9139608100
C       -1.1415289311   -0.7859365808    0.6584188230
H       -1.4642778700   -1.4607003407    1.4501247375
13   
From optimize.out: Frame 12 / 37, Energy=    -286.8654868593
C        1.5205329020    0.4164281179   -0.3439587627
C        1.1388289772   -0.8815393429   -0.3337123474
C       -0.2843264181   -1.2661553789   -0.4644990345
C       -1.1089598361    0.5541346194    0.8036599767
C       -0.5645995161    1.3891550074   -0.3146186771
N        0.6614956025    1.4619415075   -0.6836112006
H        2.5677090440    0.6836181332   -0.2568486577
H        1.8585562070   -1.6232844775    0.0069016698
H       -0.7179573085   -1.5664707435   -1.4207399886
H       -1.2396040267    1.0382360268    1.7718828773
H       -1.2669786947    2.0128939727   -0.8704444159
C       -1.1117509728   -0.7803552905    0.6530085037
H       -1.4529459596   -1.4386021516    1.4529800569
13   
From optimize.out: Frame 13 / 37, Energy=    -286.8717859321
C        1.5204903598    0.4059537328   -0.3564931529
C        1.1454672884   -0.8930874739   -0.3394076778
C       -0.2720745143   -1.2982562259   -0.4513836692
C       -1.1195303885    0.5627434521    0.7927373596
C       -0.5603818295    1.4201294419   -0.2946343432
N        0.6622959671    1.4596350109   -0.6749790587
H        2.5679959134    0.6747460385   -0.2784801599
H        1.8849865950   -1.6347067358   -0.0416408247
H       -0.7132261058   -1.6437764214   -1.3875288158
H       -1.3323296104    1.0434214824    1.7472799142
H       -1.2401750803    2.0943319000   -0.8187781881
C       -1.0903158611   -0.7728647037    0.6503008162
H       -1.4532027339   -1.4182694980    1.4530078003
13   
From optimize.out: Frame 14 / 37, Energy=    -286.8775162477
C        1.5215029944    0.3981150087   -0.3706643003
C        1.1518659222   -0.9028349470   -0.3448109347
C       -0.2598283575   -1.3239600828   -0.4338596911
C       -1.1301440040    0.5717793980    0.7817918534
C       -0.5541856124    1.4481021887   -0.2732214653
N        0.6667821787    1.4591715830   -0.6676421477
H        2.5704268526    0.6671693202   -0.3062149753
H        1.9093004731   -1.6437746700   -0.0913819079
H       -0.7037382396   -1.7227897528   -1.3460975209
H       -1.4217982093    1.0462546125    1.7181889436
H       -1.2124002728    2.1697612940   -0.7610419794
C       -1.0749839312   -0.7650225815    0.6479527986
H       -1.4627997942   -1.4019713710    1.4470013270
13   
From optimize.out: Frame 15 / 37, Energy=    -286.8829611968
C        1.5221313990    0.3930545339   -0.3855208964
C        1.1576761515   -0.9103280663   -0.3519097777
C       -0.2469339656   -1.3468445280   -0.4145810208
C       -1.1395214035    0.5813518474    0.7719237286
C       -0.5452335680    1.4738755838   -0.2499913018
N        0.6723071643    1.4612610467   -0.6591656236
H        2.5728512538    0.6612049529   -0.3376363666
H        1.9311349644   -1.6494462942   -0.1431325324
H       -0.6889810308   -1.8059340914   -1.2979444974
H       -1.5040368075    1.0474876392    1.6866362170
H       -1.1828740899    2.2377505356   -0.7000707015
C       -1.0656860698   -0.7565782807    0.6454823790
H       -1.4828339979   -1.3868548789    1.4359103936
13   
From optimize.out: Frame 17 / 37, Energy=    -286.8932750543
C        1.5228714188    0.3905082484   -0.4002809933
C        1.1621630202   -0.9153974377   -0.3598576945
C       -0.2342899137   -1.3660729504   -0.3933053546
C       -1.1481329020    0.5906040016    0.7622989136
C       -0.5348982782    1.4975828281   -0.2266701514
N        0.6790061205    1.4656997300   -0.6506641377
H        2.5756022914    0.6561160258   -0.3708535182
H        1.9491719687   -1.6522775036   -0.1958674663
H       -0.6703175608   -1.8910785274   -1.2413731799
H       -1.5787344115    1.0471503596    1.6528877049
H       -1.1523802176    2.2995190440   -0.6374395554
C       -1.0606655056   -0.7485641920    0.6417111283
H       -1.5093960301   -1.3737896264    1.4194143045
13   
From optimize.out: Frame 18 / 37, Energy=    -286.8982517582
C        1.5238419708    0.3898518986   -0.4148464539
C        1.1654737000   -0.9187487969   -0.3693217570
C       -0.2213686639   -1.3828285166   -0.3705834616
C       -1.1562391517    0.5996706545    0.7534211319
C       -0.5233400483    1.5199242343   -0.2023666540
N        0.6865910455    1.4723224895   -0.6405881754
H        2.5785812976    0.6517147910   -0.4050387829
H        1.9633314319   -1.6533194466   -0.2506171101
H       -0.6476519342   -1.9760615214   -1.1768097485
H       -1.6473666350    1.0460860490    1.6172355578
H       -1.1221033167    2.3542818183   -0.5758725172
C       -1.0587507877   -0.7409583679    0.6370324010
H       -1.5409989083   -1.3619352856    1.3983555698
13   
From optimize.out: Frame 20 / 37, Energy=    -286.9075905897
C        1.5255191965    0.3903727485   -0.4294343111
C        1.1679430054   -0.9207584494   -0.3805924232
C       -0.2079580559   -1.3968166680   -0.3469638278
C       -1.1645681481    0.6083821726    0.7453709333
C       -0.5114840335    1.5406183896   -0.1776789640
N        0.6949900322    1.4806318420   -0.6288016775
H        2.5819711895    0.6473965432   -0.4395079352
H        1.9737186819   -1.6532884941   -0.3073381049
H       -0.6212439067   -2.0585385375   -1.1043355428
H       -1.7117932151    1.0450312188    1.5800968570
H       -1.0924494220    2.4021381992   -0.5160943180
C       -1.0588014601   -0.7340211532    0.6318035786
H       -1.5758438641   -1.3511478118    1.3734757357
13   
From optimize.out: Frame 21 / 37, Energy=    -286.9117338504
C        1.5271498626    0.3925061840   -0.4437450445
C        1.1687548450   -0.9209346059   -0.3913535979
C       -0.1948712926   -1.4082407755   -0.3214138211
C       -1.1721950073    0.6158403787    0.7371360449
C       -0.4989344160    1.5589907113   -0.1542786373
N        0.7030367713    1.4893805824   -0.6189829376
H        2.5848504445    0.6440851911   -0.4753733107
H        1.9796303072   -1.6513203125   -0.3623950630
H       -0.5908873672   -2.1376390945   -1.0230296648
H       -1.7689482902    1.0428685001    1.5420801837
H       -1.0620536824    2.4459572703   -0.4560695844
C       -1.0616954091   -0.7284415188    0.6246746167
H       -1.6138367656   -1.3430525107    1.3427508159
13   
From optimize.out: Frame 23 / 37, Energy=    -286.9184196809
C        1.5295366220    0.3951819790   -0.4584371987
C        1.1689269295   -0.9204182003   -0.4035953518
C       -0.1812062872   -1.4171817233   -0.2946861430
C       -1.1800550045    0.6227730112    0.7298465858
C       -0.4861414575    1.5758282813   -0.1301536904
N        0.7116726502    1.4991677317   -0.6075398128
H        2.5879852672    0.6408518547   -0.5119364909
H        1.9817923489   -1.6492909821   -0.4181873365
H       -0.5567121964   -2.2109179803   -0.9342022294
H       -1.8231807236    1.0411339068    1.5027084086
H       -1.0332822498    2.4832173159   -0.3991307028
C       -1.0657063027   -0.7239483874    0.6172928931
H       -1.6536295961   -1.3363968073    1.3080210688
13   
From optimize.out: Frame 24 / 37, Energy=    -286.9206801634
C        1.5320713128    0.3983097651   -0.4737535787
C        1.1683056182   -0.9189033238   -0.4158292799
C       -0.1676716885   -1.4239219999   -0.2668767236
C       -1.1877133999    0.6286892237    0.7229603568
C       -0.4733138547    1.5904792490   -0.1065007256
N        0.7199039599    1.5090849587   -0.5969494028
H        2.5905561680    0.6378922458   -0.5501504350
H        1.9804950027   -1.6465637557   -0.4711867296
H       -0.5185264822   -2.2777960335   -0.8385717037
H       -1.8726989818    1.0393720669    1.4628083266
H       -1.0051326502    2.5160700762   -0.3428530783
C       -1.0713498909   -0.7209742851    0.6086440443
H       -1.6949251135   -1.3317381875    1.2682589295
13   
From optimize.out: Frame 25 / 37, Energy=    -286.9220406277
C        1.5344847149    0.4014278497   -0.4901641710
C        1.1672945276   -0.9166481183   -0.4281485385
C       -0.1546756284   -1.4289586931   -0.2383635473
C       -1.1948415705    0.6338822094    0.7169484401
C       -0.4603964440    1.6032718002   -0.0825026387
N        0.7277384987    1.5191621941   -0.5867296032
H        2.5922797669    0.6350497166   -0.5902435231
H        1.9766083673   -1.6435264182   -0.5204798082
H       -0.4766961022   -2.3376335365   -0.7372279876
H       -1.9182495200    1.0378803674    1.4225622153
H       -0.9781278773    2.5442602051   -0.2876720982
C       -1.0780383983   -0.7194753832    0.5988570597
H       -1.7373803349   -1.3286921933    1.2231642007
13   
From optimize.out: Frame 26 / 37, Energy=    -286.9227005539
C        1.5362471390    0.4041325883   -0.5080344584
C        1.1663383106   -0.9137352702   -0.4401386429
C       -0.1425700280   -1.4328096746   -0.2092067848
C       -1.2010763771    0.6383612571    0.7118521283
C       -0.4477754081    1.6139219279   -0.0583084235
N        0.7347736085    1.5290420549   -0.5774009977
H        2.5925046553    0.6321770153   -0.6327226897
H        1.9714062174   -1.6401285724   -0.5641650443
H       -0.4318027970   -2.3897419118   -0.6315494358
H       -1.9595965764    1.0367613969    1.3821679974
H       -0.9521514962    2.5685008736   -0.2324163766
C       -1.0853826307   -0.7196618380    0.5877726207
H       -1.7809146173   -1.3268198471    1.1721501072
13   
From optimize.out: Frame 27 / 37, Energy=    -286.9230283372
C        1.5368446361    0.4061182934   -0.5276861335
C        1.1657802373   -0.9103785765   -0.4515049153
C       -0.1316458381   -1.4361038296   -0.1792158014
C       -1.2063172596    0.6425519523    0.7076888800
C       -0.4356284309    1.6223786325   -0.0337061933
N        0.7411938532    1.5386739897   -0.5687686510
H        2.5907682929    0.6291276263   -0.6780567050
H        1.9661338169   -1.6365159847   -0.6011518977
H       -0.3849537393   -2.4335985709   -0.5231053152
H       -1.9973114095    1.0362785285    1.3414238361
H       -0.9269915911    2.5890146936   -0.1763553274
C       -1.0930112149   -0.7215787647    0.5754546511
H       -1.8248613528   -1.3259679900    1.1149835727
13   
From optimize.out: Frame 29 / 37, Energy=    -286.9239547601
C        1.5358321286    0.4069709990   -0.5485650992
C        1.1661493874   -0.9073658367   -0.4619458948
C       -0.1213582294   -1.4389075693   -0.1479186634
C       -1.2111951156    0.6465686357    0.7033208507
C       -0.4249990844    1.6287753405   -0.0087116698
N        0.7471474932    1.5478290252   -0.5596489058
H        2.5863725906    0.6255019860   -0.7268341572
H        1.9618018299   -1.6334789082   -0.6316752035
H       -0.3366810762   -2.4686296944   -0.4139106252
H       -2.0320385431    1.0366929550    1.2993259842
H       -0.9028965120    2.6066588723   -0.1184993166
C       -1.1002094303   -0.7254592717    0.5620297416
H       -1.8679254386   -1.3251565335    1.0530329589
13   
From optimize.out: Frame 30 / 37, Energy=    -286.9240991265
C        1.5335153488    0.4075659762   -0.5706362649
C        1.1669358070   -0.9043720900   -0.4706749903
C       -0.1121795460   -1.4425820273   -0.1147465885
C       -1.2167494434    0.6515230970    0.6977875216
C       -0.4156567819    1.6325742181    0.0153836369
N        0.7546160920    1.5572543688   -0.5485686736
H        2.5798574998    0.6217115514   -0.7790704294
H        1.9578855054   -1.6306169903   -0.6577230193
H       -0.2885065620   -2.4963014647   -0.3053844362
H       -2.0650627745    1.0380829701    1.2557304442
H       -0.8780456428    2.6215241735   -0.0584522076
C       -1.1081192071   -0.7306413379    0.5480065781
H       -1.9084902953   -1.3257224449    0.9883484291
13   
From optimize.out: Frame 32 / 37, Energy=    -286.9242960251
C        1.5302957162    0.4068116623   -0.5902303228
C        1.1696178668   -0.9041179753   -0.4780102943
C       -0.1006098057   -1.4449501309   -0.0789292371
C       -1.2254756345    0.6560551140    0.6868112099
C       -0.4110405704    1.6356747581    0.0383601002
N        0.7632803063    1.5657870090   -0.5312987463
H        2.5698216078    0.6166870989   -0.8360520363
H        1.9544840802   -1.6310995249   -0.6837727756
H       -0.2381765739   -2.5149917106   -0.2005084758
H       -2.0975345289    1.0407850675    1.2076093515
H       -0.8553399036    2.6356518664    0.0040264587
C       -1.1145651230   -0.7380172457    0.5345199381
H       -1.9447574373   -1.3242759887    0.9274748299
13   
From optimize.out: Frame 34 / 37, Energy=    -286.9243322818
C        1.5257686186    0.4068828367   -0.6079910498
C        1.1724760465   -0.9045852134   -0.4804647515
C       -0.0892676399   -1.4481073881   -0.0409826065
C       -1.2367509640    0.6618170552    0.6698597467
C       -0.4055709552    1.6380576175    0.0631351094
N        0.7763386978    1.5743733603   -0.5060903431
H        2.5558081929    0.6114789276   -0.8996811714
H        1.9497369869   -1.6323025788   -0.7098906582
H       -0.1896510569   -2.5275806117   -0.0989670199
H       -2.1296383056    1.0434881170    1.1561096928
H       -0.8320952735    2.6470543374    0.0650426243
C       -1.1223759237   -0.7450256147    0.5195719465
H       -1.9747784240   -1.3255508450    0.8703484806
13   
From optimize.out: Frame 35 / 37, Energy=    -286.9243356283
C        1.5208750791    0.4100496054   -0.6254978837
C        1.1734150736   -0.9044683962   -0.4806469901
C       -0.0780648070   -1.4534511278   -0.0033808930
C       -1.2556603328    0.6681582204    0.6363882323
C       -0.4007988911    1.6390193850    0.0820185074
N        0.7995226935    1.5831174300   -0.4676310314
H        2.5389733291    0.6067179608   -0.9652590121
H        1.9417774420   -1.6314915023   -0.7394092613
H       -0.1469467333   -2.5373217507   -0.0085753109
H       -2.1619456371    1.0454048770    1.1014646727
H       -0.8023629822    2.6572264619    0.1305634897
C       -1.1342672322   -0.7510698542    0.5047891846
H       -1.9945170015   -1.3318913091    0.8351762959
13   
From optimize.out: Frame 36 / 37, Energy=    -286.9243383249
C        1.5112919788    0.4152057261   -0.6397680021
C        1.1708812242   -0.9053546454   -0.4832779559
C       -0.0650819814   -1.4552072333    0.0275066412
C       -1.2812313708    0.6689221242    0.5775035544
C       -0.3964000221    1.6403481739    0.1067205715
N        0.8303389172    1.5858163896   -0.4138514666
H        2.5131521392    0.6000911726   -1.0317597070
H        1.9343501086   -1.6282249891   -0.7646739916
H       -0.1139514814   -2.5405403159    0.0583357058
H       -2.1912377070    1.0460291580    1.0366386465
H       -0.7684813949    2.6650900182    0.2050723367
C       -1.1434336898   -0.7575779129    0.4886151924
H       -2.0001967207   -1.3345976660    0.8329384747
13   
From optimize.out: Frame 1 / 2, Energy=    -286.9243414232
C        1.5035376980    0.4255142910   -0.6445151205
C        1.1644220702   -0.9055780454   -0.4846402596
C       -0.0585517045   -1.4553050711    0.0414482244
C       -1.2909871391    0.6711360798    0.5414218192
C       -0.3878717608    1.6387500233    0.1458513185
N        0.8578212239    1.5846968985   -0.3832079680
H        2.4957645498    0.5966397039   -1.0679234221
H        1.9191119173   -1.6235205895   -0.7965938898
H       -0.1123765554   -2.5415801874    0.0785078455
H       -2.2328185316    1.0423261908    0.9384368455
H       -0.7301868482    2.6672819023    0.2788079180
C       -1.1408808593   -0.7611911964    0.4931705073
H       -1.9869840602   -1.3391700000    0.8592361815
