13   
From optimize.out: Frame 2 / 3, Energy=    -286.8754839822
C        1.6788940560    0.4831173748   -0.3254226191
C        1.1472680733   -0.8115037871   -0.4356721793
C       -0.3414768064   -0.7023947536   -0.4748746117
C       -1.2147508122    0.6013225828    0.9533003207
C       -0.5218949549    0.8645749668   -0.3840361394
N        0.7983363325    1.4779555792   -0.2909041369
H        2.7415504446    0.7077504902   -0.2444427556
H        1.7213677897   -1.7315588368   -0.4442419245
H       -0.8250289056   -1.2467896183   -1.2965906657
H       -1.6238300798    1.2813387197    1.6943853014
H       -1.1308946656    1.3566780121   -1.1523330968
C       -1.0770375642   -0.7266828719    0.8758334228
H       -1.3525029078   -1.5538078583    1.5249990846
13   
From optimize.out: Frame 1 / 3, Energy=    -286.8754792730
C        1.6790276778    0.4830999984   -0.3260927528
C        1.1480824923   -0.8118775612   -0.4378191509
C       -0.3405772721   -0.7026571801   -0.4748621500
C       -1.2156312520    0.6018872472    0.9537731762
C       -0.5216060230    0.8648089160   -0.3834391385
N        0.7980311248    1.4779680468   -0.2908272692
H        2.7418748683    0.7076444538   -0.2455474247
H        1.7219389641   -1.7321137313   -0.4438373821
H       -0.8234852604   -1.2474930974   -1.2968410911
H       -1.6253226248    1.2818949859    1.6946776601
H       -1.1307923853    1.3573470142   -1.1512337866
C       -1.0771352298   -0.7264035321    0.8767470070
H       -1.3544050798   -1.5541055603    1.5253023026
13   
From optimize.out: Frame 20 / 21, Energy=    -286.8754792730
C        1.6790276778    0.4830999984   -0.3260927528
C        1.1480824923   -0.8118775612   -0.4378191509
C       -0.3405772721   -0.7026571801   -0.4748621500
C       -1.2156312520    0.6018872472    0.9537731762
C       -0.5216060230    0.8648089160   -0.3834391385
N        0.7980311248    1.4779680468   -0.2908272692
H        2.7418748683    0.7076444538   -0.2455474247
H        1.7219389641   -1.7321137313   -0.4438373821
H       -0.8234852604   -1.2474930974   -1.2968410911
H       -1.6253226248    1.2818949859    1.6946776601
H       -1.1307923853    1.3573470142   -1.1512337866
C       -1.0771352298   -0.7264035321    0.8767470070
H       -1.3544050798   -1.5541055603    1.5253023026
13   
From optimize.out: Frame 18 / 21, Energy=    -286.8753728372
C        1.6788822232    0.4830410240   -0.3387905666
C        1.1527530288   -0.8146352216   -0.4305472691
C       -0.3389752617   -0.7028394164   -0.4791785794
C       -1.2040175451    0.5983993757    0.9600829643
C       -0.5260662130    0.8647393517   -0.3893373290
N        0.7906380102    1.4719235831   -0.3115951993
H        2.7407978942    0.7145628154   -0.2655909184
H        1.7220053808   -1.7355445802   -0.3894846983
H       -0.8060030143   -1.2554612821   -1.3043561228
H       -1.6062527813    1.2777699599    1.7051186251
H       -1.1477830923    1.3895589511   -1.1248810436
C       -1.0819308080   -0.7304196579    0.8651587364
H       -1.3740478214   -1.5610949028    1.5034014007
13   
From optimize.out: Frame 16 / 21, Energy=    -286.8748748160
C        1.6699986331    0.4877200345   -0.3462072011
C        1.1381850487   -0.8099167736   -0.4196556790
C       -0.3608283564   -0.7064602902   -0.4926826217
C       -1.1913286715    0.5844561808    0.9560533662
C       -0.5169693323    0.8674737932   -0.3926952355
N        0.7888761055    1.4834119735   -0.3403448414
H        2.7299770019    0.7210328721   -0.2687877051
H        1.7051828536   -1.7226935760   -0.2748885963
H       -0.8246706767   -1.2019482254   -1.3558393451
H       -1.5332301145    1.2570155282    1.7356874890
H       -1.1619298901    1.3564673497   -1.1335778626
C       -1.0811326257   -0.7453108999    0.8443154431
H       -1.3621299756   -1.5712479670    1.4886227897
13   
From optimize.out: Frame 13 / 21, Energy=    -286.8723117886
C        1.6597181317    0.4896874351   -0.3471118770
C        1.1277890175   -0.8033892927   -0.3982101503
C       -0.3704482921   -0.7096618959   -0.5133490890
C       -1.1611170621    0.5731780832    0.9621259519
C       -0.5211427306    0.8802259178   -0.3937559012
N        0.7785954187    1.4833655325   -0.4001487399
H        2.7151720245    0.7298642513   -0.2538150798
H        1.6877961440   -1.7067880757   -0.1758518371
H       -0.8258446397   -1.1785723693   -1.3952790696
H       -1.4426046329    1.2362871361    1.7736960980
H       -1.1911946730    1.3362973140   -1.1335832059
C       -1.0858715702   -0.7541132617    0.8175559183
H       -1.3708471359   -1.5763807747    1.4577269817
13   
From optimize.out: Frame 12 / 21, Energy=    -286.8687055824
C        1.6452197610    0.4960712592   -0.3257904008
C        1.1165897207   -0.7923052760   -0.3882257243
C       -0.3798408685   -0.7210613584   -0.5187914753
C       -1.1332910286    0.5556529328    0.9506169966
C       -0.5205289481    0.8582566030   -0.4125898610
N        0.7642909727    1.4812312223   -0.4562655485
H        2.6967671274    0.7401667422   -0.2128046599
H        1.6762666539   -1.6831972105   -0.1150883991
H       -0.8501152044   -1.1090674481   -1.4315509055
H       -1.3392489828    1.2224287052    1.7819716808
H       -1.2114280226    1.3036849578   -1.1384019052
C       -1.0922822755   -0.7690577129    0.8090725202
H       -1.3723989053   -1.5828034166    1.4578476820
13   
From optimize.out: Frame 11 / 21, Energy=    -286.8625629266
C        1.6329589290    0.5022552467   -0.3177992765
C        1.1071099584   -0.7815072302   -0.3709873716
C       -0.3818441085   -0.7429731000   -0.5274774086
C       -1.1052992836    0.5398288801    0.9468038451
C       -0.5261220510    0.8744367118   -0.4145729511
N        0.7580639224    1.4798393011   -0.5313294429
H        2.6821062354    0.7451194568   -0.1863859902
H        1.6628521267   -1.6549885605   -0.0341370213
H       -0.8556180462   -1.0732717416   -1.4598986750
H       -1.2351198409    1.1936149769    1.8052838829
H       -1.2409275677    1.2859301277   -1.1350061534
C       -1.1073925086   -0.7799286719    0.7879995242
H       -1.3907677655   -1.5883553969    1.4375070384
13   
From optimize.out: Frame 10 / 21, Energy=    -286.8540420596
C        1.6204460992    0.5106475064   -0.3041556435
C        1.1051328202   -0.7700186563   -0.3641699043
C       -0.3718282155   -0.7809104252   -0.5250189460
C       -1.0852099419    0.5234362846    0.9393724549
C       -0.5353605816    0.9010276553   -0.4143922685
N        0.7569509511    1.4731721683   -0.6146411400
H        2.6715310574    0.7458976480   -0.1616639753
H        1.6652248200   -1.6232159708    0.0182527928
H       -0.8499769731   -1.0390265676   -1.4755247776
H       -1.1363172338    1.1606131980    1.8214330294
H       -1.2702527390    1.2803264538   -1.1289268404
C       -1.1387203341   -0.7890648467    0.7774081223
H       -1.4316197287   -1.5928844479    1.4320270962
13   
From optimize.out: Frame 8 / 21, Energy=    -286.8275226693
C        1.6123477948    0.5126402504   -0.3120473241
C        1.1142956881   -0.7740501606   -0.3632193133
C       -0.3501442203   -0.8435532123   -0.5203982431
C       -1.0871898273    0.5193989618    0.9312382163
C       -0.5491627267    0.9648886869   -0.4010801092
N        0.7627534980    1.4767549900   -0.6716962393
H        2.6696857420    0.7351336782   -0.1717270108
H        1.6891598598   -1.6000605779    0.0564346122
H       -0.8183421568   -1.0778743872   -1.4801487375
H       -1.0866302212    1.1259190170    1.8387661584
H       -1.2967287289    1.3418636029   -1.1015627168
C       -1.1773638707   -0.7913985501    0.7644182490
H       -1.4826808307   -1.5896622993    1.4310224582
13   
From optimize.out: Frame 7 / 21, Energy=    -286.8081201075
C        1.6064011130    0.5126236225   -0.3281406440
C        1.1275159246   -0.7841115625   -0.3656168544
C       -0.3239145274   -0.9042625565   -0.5195427328
C       -1.0983408707    0.5219865376    0.9256268764
C       -0.5668277300    1.0251136596   -0.3836595662
N        0.7734204961    1.4861180391   -0.7160195880
H        2.6706312534    0.7209009493   -0.1912400675
H        1.7170476185   -1.5812079395    0.0891484142
H       -0.7768685901   -1.1384696045   -1.4851192806
H       -1.0539171436    1.0949660693    1.8560054017
H       -1.3229473281    1.4177037525   -1.0643394824
C       -1.2189673387   -0.7888614235    0.7514103878
H       -1.5332328771   -1.5824995435    1.4314871358
13   
From optimize.out: Frame 6 / 21, Energy=    -286.7798769413
C        1.6110071238    0.5124297520   -0.3498275770
C        1.1456226365   -0.7955305462   -0.3734875328
C       -0.2920235637   -0.9547374586   -0.5217707305
C       -1.1232395544    0.5282943608    0.9244851019
C       -0.5928349312    1.0741880241   -0.3620994813
N        0.8013540862    1.5030537533   -0.7567892148
H        2.6835118767    0.7002104604   -0.2160519852
H        1.7470445017   -1.5657184842    0.1119517726
H       -0.7293818987   -1.1960200938   -1.4912541695
H       -1.0426738464    1.0701449351    1.8737950848
H       -1.3558945665    1.4844069343   -1.0228903023
C       -1.2662934103   -0.7838970185    0.7452925640
H       -1.5861984537   -1.5768246188    1.4386464700
13   
From optimize.out: Frame 5 / 21, Energy=    -286.7419989578
C        1.6267878641    0.5109240726   -0.3754479296
C        1.1692058222   -0.8099220189   -0.3861231100
C       -0.2557109853   -0.9947201381   -0.5275116608
C       -1.1594187365    0.5392299438    0.9284313244
C       -0.6259329418    1.1143875082   -0.3381687512
N        0.8401856301    1.5237604943   -0.7919165115
H        2.7076865930    0.6759118781   -0.2438561055
H        1.7796248668   -1.5574629216    0.1233136930
H       -0.6775517871   -1.2471670979   -1.4995472666
H       -1.0533329518    1.0548416548    1.8927228905
H       -1.3965585119    1.5397350205   -0.9796297880
C       -1.3155007620   -0.7766342936    0.7458130676
H       -1.6394840999   -1.5728841021    1.4519201478
13   
From optimize.out: Frame 4 / 21, Energy=    -286.6973519848
C        1.6492086180    0.5075606464   -0.4020047921
C        1.1975167013   -0.8286632559   -0.4011510739
C       -0.2166168827   -1.0269406752   -0.5357564124
C       -1.2005398808    0.5551374296    0.9369748048
C       -0.6627100721    1.1494676006   -0.3140276935
N        0.8781890809    1.5427584655   -0.8222410046
H        2.7377969982    0.6522203682   -0.2718086230
H        1.8145557176   -1.5579319978    0.1264529142
H       -0.6222246949   -1.2910431339   -1.5104057979
H       -1.0762759203    1.0489590827    1.9135126440
H       -1.4433821388    1.5853630378   -0.9361088459
C       -1.3635555202   -0.7667347267    0.7492164308
H       -1.6919620062   -1.5701528412    1.4673474495
13   
From optimize.out: Frame 1 / 21, Energy=    -286.5896370306
C        1.6747172057    0.5026580143   -0.4280744343
C        1.2296681319   -0.8512003756   -0.4172036830
C       -0.1752944802   -1.0528092190   -0.5446811229
C       -1.2434477841    0.5753252901    0.9492472015
C       -0.7011738982    1.1811790127   -0.2905892929
N        0.9097118196    1.5576001501   -0.8508880898
H        2.7707335700    0.6301092027   -0.2987889483
H        1.8508296419   -1.5658536689    0.1251162304
H       -0.5626337509   -1.3270430939   -1.5229485706
H       -1.1032726060    1.0502464973    1.9364487176
H       -1.4952428310    1.6224748578   -0.8921621222
C       -1.4103584096   -0.7539260496    0.7526500697
H       -1.7442366092   -1.5687606179    1.4818740448
13   
C6H6N->C6H6N atoms 1-13 frame 308 charge +0.000 sz -1.000 sz^2 2.148
C        1.6992848206    0.4953173366   -0.4524530177
C        1.2660407342   -0.8760451291   -0.4334839212
C       -0.1308553661   -1.0680891630   -0.5527276858
C       -1.2862762855    0.5993074605    0.9651001964
C       -0.7416406122    1.2073062122   -0.2690611627
N        0.9275034999    1.5608266576   -0.8830771755
H        2.8028899845    0.6087601525   -0.3223254962
H        1.8853403176   -1.5795285903    0.1248374325
H       -0.4924015685   -1.3512575588   -1.5368130694
H       -1.1228343223    1.0553003960    1.9620944644
H       -1.5550207897    1.6488066211   -0.8442257800
C       -1.4559325646   -0.7347725988    0.7520714450
H       -1.7960978479   -1.5659317966    1.4900637703
13   
C6H6N->C6H6N atoms 1-13 frame 309 charge +0.000 sz -1.000 sz^2 2.121
C        1.7207206331    0.4849397156   -0.4746902427
C        1.3039821620   -0.9031586527   -0.4503255526
C       -0.0861353436   -1.0804679229   -0.5596702989
C       -1.3281298634    0.6265664656    0.9792014169
C       -0.7796510855    1.2348773345   -0.2480359739
N        0.9329579141    1.5639571428   -0.9170604772
H        2.8330051990    0.5841321923   -0.3424290750
H        1.9201285413   -1.5981455662    0.1204754899
H       -0.4175520016   -1.3721153013   -1.5496803942
H       -1.1447818292    1.0665787231    1.9849116953
H       -1.6145071206    1.6753987649   -0.7915657674
C       -1.4963289684   -0.7164997549    0.7488614238
H       -1.8437082371   -1.5660631408    1.5000077561
13   
C6H6N->C6H6N atoms 1-13 frame 310 charge -0.000 sz -1.000 sz^2 2.078
C        1.7270508813    0.4752446082   -0.4773736174
C        1.3243972422   -0.9282069511   -0.4493455000
C       -0.0815776237   -1.0937515123   -0.5489855291
C       -1.3463538393    0.6423372501    0.9752883245
C       -0.7921950389    1.2591526486   -0.2425186905
N        0.9308857071    1.5485336725   -0.9217981250
H        2.8518594155    0.6157107220   -0.3734300795
H        1.9444685776   -1.6330438344    0.1184893018
H       -0.3497108574   -1.3559356126   -1.5543924958
H       -1.1137268246    1.0635779554    1.9764620649
H       -1.6647344452    1.6903592630   -0.7619277248
C       -1.5429622424   -0.7162731232    0.7570157350
H       -1.8874009523   -1.5677050861    1.5025163360
13   
C6H6N->C6H6N atoms 1-13 frame 311 charge +0.000 sz -1.000 sz^2 2.039
C        1.7227760169    0.4639030316   -0.4635008222
C        1.3322509702   -0.9510800054   -0.4294069360
C       -0.1122508254   -1.1100993703   -0.5204141360
C       -1.3421499556    0.6446722839    0.9599724570
C       -0.7817636907    1.2798537860   -0.2479654603
N        0.9223225655    1.5147788922   -0.8983172848
H        2.8516670410    0.6981571357   -0.4177651447
H        1.9636177252   -1.6832108953    0.1153925574
H       -0.2958488628   -1.3125184576   -1.5545398315
H       -1.0465335718    1.0467703117    1.9429636279
H       -1.6975711790    1.6988338859   -0.7553573752
C       -1.5939069052   -0.7332527827    0.7788678620
H       -1.9226093284   -1.5568078156    1.4900704865
13   
From optimize.out: Frame 1 / 37, Energy=    -286.5877433464
C        1.7122113816    0.4566182761   -0.4467896300
C        1.3288015827   -0.9587395467   -0.4067142604
C       -0.1438911976   -1.1215741626   -0.4971982792
C       -1.3242620358    0.6353751194    0.9466309044
C       -0.7621947479    1.2882356591   -0.2563292339
N        0.9088644854    1.4890726500   -0.8711558136
H        2.8284727777    0.7588897876   -0.4437105559
H        1.9684306549   -1.7097453140    0.1120171606
H       -0.2859410616   -1.2808741890   -1.5577971222
H       -0.9997379669    1.0316165330    1.9162206865
H       -1.6903496594    1.7006174027   -0.7680752637
C       -1.6133075428   -0.7492524160    0.7956504193
H       -1.9270966703   -1.5402397997    1.4772509881
13   
From optimize.out: Frame 2 / 37, Energy=    -286.6430874522
C        1.6815266716    0.4646154086   -0.4259643024
C        1.2912069875   -0.9310564363   -0.3920169863
C       -0.1725052065   -1.1152818937   -0.4996502304
C       -1.2829837773    0.6097899606    0.9320172957
C       -0.7279691658    1.2680839682   -0.2733464608
N        0.8903038996    1.4923098397   -0.8473662157
H        2.7858132156    0.7552659645   -0.4123725743
H        1.9299681748   -1.6774891985    0.1209296922
H       -0.3579757233   -1.2724791452   -1.5579156749
H       -0.9830291215    1.0207061257    1.9036025928
H       -1.6245488927    1.6816546346   -0.8162574803
C       -1.5599146254   -0.7566160512    0.7890056140
H       -1.8698924366   -1.5395031769    1.4793347303
13   
From optimize.out: Frame 3 / 37, Energy=    -286.6952452699
C        1.6471165873    0.4691960619   -0.4027551587
C        1.2554206300   -0.9064589223   -0.3789709701
C       -0.2004816129   -1.1063106751   -0.5033617654
C       -1.2414491279    0.5883470587    0.9182584073
C       -0.6931433869    1.2482869491   -0.2918119433
N        0.8568623909    1.4883152172   -0.8247055177
H        2.7403057834    0.7532507046   -0.3759148857
H        1.8913493392   -1.6507255615    0.1297536907
H       -0.4225547527   -1.2632728619   -1.5565662170
H       -0.9591090948    1.0132553987    1.8892013706
H       -1.5621714682    1.6630913703   -0.8577241431
C       -1.5034361067   -0.7608372751    0.7778257375
H       -1.8087091808   -1.5361374646    1.4767713949
13   
From optimize.out: Frame 4 / 37, Energy=    -286.7425620681
C        1.6117077966    0.4722886973   -0.3789673236
C        1.2207861239   -0.8847774340   -0.3656719946
C       -0.2282111512   -1.0992468350   -0.5058575412
C       -1.1988116933    0.5696538722    0.9040204558
C       -0.6573616945    1.2323179515   -0.3112911793
N        0.8157639921    1.4824046087   -0.8012023724
H        2.6939357631    0.7529421957   -0.3386891001
H        1.8547833233   -1.6275573859    0.1377413858
H       -0.4857369515   -1.2563377049   -1.5529418561
H       -0.9337342495    1.0079158314    1.8739400498
H       -1.5007723059    1.6492652079   -0.8971628111
C       -1.4459089880   -0.7656393724    0.7640892702
H       -1.7464399651   -1.5332296325    1.4719930169
13   
From optimize.out: Frame 6 / 37, Energy=    -286.8072292042
C        1.5758792996    0.4733022410   -0.3554036643
C        1.1876444185   -0.8671389045   -0.3519237712
C       -0.2553296857   -1.0979139102   -0.5064708929
C       -1.1556149385    0.5542905686    0.8880985660
C       -0.6215230170    1.2244330474   -0.3310620826
N        0.7674747303    1.4752370787   -0.7760786939
H        2.6471190727    0.7533137411   -0.3014425035
H        1.8219699439   -1.6080272233    0.1447536244
H       -0.5484252437   -1.2570073714   -1.5458881560
H       -0.9097613425    1.0040993004    1.8576327073
H       -1.4410264272    1.6465979182   -0.9333166120
C       -1.3863672168   -0.7713369276    0.7462863043
H       -1.6820395936   -1.5298495583    1.4648151744
13   
From optimize.out: Frame 7 / 37, Energy=    -286.8220107331
C        1.5423913896    0.4706628514   -0.3344992443
C        1.1573003705   -0.8552515224   -0.3378528616
C       -0.2806810638   -1.1093414572   -0.5037327646
C       -1.1152906054    0.5432737647    0.8687075911
C       -0.5891583644    1.2327207149   -0.3485210199
N        0.7162076200    1.4686428885   -0.7496257345
H        2.6030905327    0.7506300889   -0.2664640999
H        1.7965789537   -1.5925442978    0.1496083986
H       -0.6104227672   -1.2761733443   -1.5327007989
H       -0.8969260735    1.0012158738    1.8403574168
H       -1.3863246993    1.6678169550   -0.9615257987
C       -1.3228327285   -0.7780401536    0.7215223778
H       -1.6139325644   -1.5236123619    1.4547265382
13   
From optimize.out: Frame 8 / 37, Energy=    -286.8329242316
C        1.5213611338    0.4619227429   -0.3225777249
C        1.1348522361   -0.8511285441   -0.3255760856
C       -0.3000923751   -1.1396966234   -0.4946487508
C       -1.0893604339    0.5379906250    0.8463420877
C       -0.5696261221    1.2650775860   -0.3570273545
N        0.6787627369    1.4668869190   -0.7262085311
H        2.5744584734    0.7372783981   -0.2413728768
H        1.7869037714   -1.5849094413    0.1441621935
H       -0.6661144703   -1.3253949394   -1.5090258721
H       -0.9242049558    1.0023098515    1.8240598159
H       -1.3460897447    1.7273836964   -0.9718064861
C       -1.2552193841   -0.7857189692    0.6903176023
H       -1.5456308655   -1.5120013015    1.4433619825
13   
From optimize.out: Frame 9 / 37, Energy=    -286.8424465427
C        1.5187938037    0.4480564710   -0.3232999857
C        1.1284954507   -0.8555423764   -0.3231374617
C       -0.3046186629   -1.1776706178   -0.4843204892
C       -1.0875872422    0.5391521752    0.8302115577
C       -0.5663876595    1.3049177759   -0.3515992868
N        0.6673614940    1.4672312812   -0.7099052265
H        2.5684857431    0.7166425465   -0.2334383239
H        1.7996819207   -1.5917962004    0.1127488593
H       -0.6995255078   -1.3909391672   -1.4822683186
H       -1.0089785264    1.0146923473    1.8119639602
H       -1.3218969702    1.8083940352   -0.9586158303
C       -1.1966336940   -0.7898023226    0.6697839105
H       -1.4971901494   -1.4933359478    1.4418766349
13   
From optimize.out: Frame 10 / 37, Energy=    -286.8508919661
C        1.5189325319    0.4338004299   -0.3297131331
C        1.1314395201   -0.8654313645   -0.3278780063
C       -0.2980879366   -1.2168402886   -0.4786488238
C       -1.0949073558    0.5443038019    0.8194105493
C       -0.5657853375    1.3410237196   -0.3386123902
N        0.6619894489    1.4650297813   -0.6966667986
H        2.5664433474    0.7007872239   -0.2369640166
H        1.8232405488   -1.6046970145    0.0693341521
H       -0.7131955486   -1.4630827908   -1.4600932613
H       -1.1059352229    1.0276740073    1.7990893204
H       -1.2986887046    1.8940417078   -0.9293022858
C       -1.1545679994   -0.7875868852    0.6611057192
H       -1.4708772917   -1.4690223280    1.4489389747
13   
From optimize.out: Frame 12 / 37, Energy=    -286.8654868593
C        1.5209649392    0.4209053960   -0.3393425492
C        1.1362110026   -0.8767628708   -0.3312536237
C       -0.2892668753   -1.2519495621   -0.4687195192
C       -1.1050313619    0.5507692443    0.8078351584
C       -0.5661751448    1.3763959958   -0.3223823026
N        0.6621376905    1.4631053620   -0.6874003344
H        2.5682540372    0.6871662377   -0.2493486463
H        1.8477768362   -1.6186189912    0.0258760349
H       -0.7192643472   -1.5357958834   -1.4323043253
H       -1.2031203203    1.0358033680    1.7806476288
H       -1.2776261525    1.9799042041   -0.8897855836
C       -1.1209818578   -0.7833360173    0.6541847895
H       -1.4538784459   -1.4475864831    1.4519932726
13   
From optimize.out: Frame 13 / 37, Energy=    -286.8717859321
C        1.5198772179    0.4096331480   -0.3509645887
C        1.1428021632   -0.8887883863   -0.3374438453
C       -0.2768285016   -1.2877149279   -0.4580937888
C       -1.1149219102    0.5592421026    0.7973234854
C       -0.5622082532    1.4085188032   -0.3028361611
N        0.6605211335    1.4601751763   -0.6778605974
H        2.5668819316    0.6782333297   -0.2682310982
H        1.8749155881   -1.6303650827   -0.0218948969
H       -0.7159736727   -1.6130246415   -1.4031892988
H       -1.2949737577    1.0419279670    1.7585809961
H       -1.2508195122    2.0629611065   -0.8410911688
C       -1.0977416610   -0.7758315715    0.6512233061
H       -1.4515307658   -1.4249670233    1.4544776564
13   
From optimize.out: Frame 14 / 37, Energy=    -286.8775162477
C        1.5213961113    0.4005183905   -0.3646601135
C        1.1494042911   -0.8994382147   -0.3423087101
C       -0.2650517818   -1.3138281469   -0.4414712796
C       -1.1263381705    0.5679157504    0.7859625974
C       -0.5576837818    1.4372810251   -0.2825183722
N        0.6649178045    1.4588370625   -0.6707223635
H        2.5696415206    0.6695945077   -0.2936203808
H        1.8998637879   -1.6411203558   -0.0708101003
H       -0.7091673177   -1.6892038712   -1.3643946815
H       -1.3875127943    1.0456277480    1.7305856178
H       -1.2244508068    2.1406737754   -0.7858167851
C       -1.0793462471   -0.7684819578    0.6489380866
H       -1.4556726154   -1.4083757131    1.4508364850
13   
From optimize.out: Frame 15 / 37, Energy=    -286.8829611968
C        1.5216571135    0.3946494736   -0.3793219846
C        1.1554154496   -0.9077328353   -0.3484189954
C       -0.2522964869   -1.3385697386   -0.4228842279
C       -1.1356317921    0.5773505507    0.7757778858
C       -0.5491414576    1.4637056704   -0.2598158722
N        0.6694704966    1.4596539419   -0.6632006576
H        2.5715592553    0.6636723425   -0.3243756402
H        1.9229076182   -1.6476020351   -0.1210452448
H       -0.6959098283   -1.7712186193   -1.3197140912
H       -1.4712357617    1.0471585142    1.7003136683
H       -1.1950241113    2.2117037856   -0.7253181662
C       -1.0686937282   -0.7600343644    0.6465320712
H       -1.4730767670   -1.3927366862    1.4414712547
13   
From optimize.out: Frame 17 / 37, Energy=    -286.8932750543
C        1.5228004936    0.3908044850   -0.3942659632
C        1.1608654192   -0.9139892684   -0.3568343717
C       -0.2393688303   -1.3585181229   -0.4028673359
C       -1.1450086426    0.5869966456    0.7664865063
C       -0.5397205429    1.4882227103   -0.2361313653
N        0.6763089714    1.4635282573   -0.6534732307
H        2.5746739307    0.6577241021   -0.3563438336
H        1.9427416292   -1.6520480683   -0.1742920020
H       -0.6792062835   -1.8549086743   -1.2672332119
H       -1.5503106285    1.0479519498    1.6673408586
H       -1.1657335415    2.2744957862   -0.6644530364
C       -1.0614430390   -0.7517026375    0.6440015338
H       -1.4965989358   -1.3785571649    1.4280654519
13   
From optimize.out: Frame 18 / 37, Energy=    -286.8982517582
C        1.5229688574    0.3901012715   -0.4085445839
C        1.1639456951   -0.9173320141   -0.3640112069
C       -0.2273123779   -1.3764519512   -0.3801688786
C       -1.1524250835    0.5955598726    0.7565458997
C       -0.5282733368    1.5104419795   -0.2136721118
N        0.6827115277    1.4686829506   -0.6468049392
H        2.5768776954    0.6539068126   -0.3907872661
H        1.9580061212   -1.6525927072   -0.2255083495
H       -0.6581060233   -1.9407695274   -1.2058460563
H       -1.6177836770    1.0460491161    1.6330316203
H       -1.1340351053    2.3338965876   -0.6003277963
C       -1.0595973120   -0.7442525213    0.6385645150
H       -1.5269769809   -1.3672398692    1.4075291536
13   
From optimize.out: Frame 19 / 37, Energy=    -286.9030567768
C        1.5250139120    0.3895171764   -0.4233051734
C        1.1675246731   -0.9206504813   -0.3764498719
C       -0.2133906812   -1.3913874964   -0.3577173832
C       -1.1613586055    0.6051883739    0.7492268953
C       -0.5167183150    1.5326518426   -0.1871918414
N        0.6917983495    1.4772076806   -0.6322436901
H        2.5808679670    0.6487725381   -0.4241679592
H        1.9704793592   -1.6542949166   -0.2843194813
H       -0.6336198760   -2.0234323934   -1.1378356057
H       -1.6870745221    1.0461356223    1.5960332065
H       -1.1060878081    2.3816440058   -0.5430472852
C       -1.0576145358   -0.7365367725    0.6349759127
H       -1.5598199170   -1.3548151793    1.3860422769
13   
From optimize.out: Frame 20 / 37, Energy=    -286.9075905897
C        1.5261852484    0.3915005397   -0.4375135683
C        1.1684944394   -0.9209007698   -0.3860530182
C       -0.2007969216   -1.4039732496   -0.3327887929
C       -1.1687988770    0.6125921485    0.7402881123
C       -0.5045843506    1.5511196682   -0.1651393560
N        0.6991972188    1.4851454756   -0.6242645131
H        2.5834254265    0.6455827454   -0.4597286610
H        1.9779886660   -1.6519618561   -0.3376806086
H       -0.6049302514   -2.1048144713   -1.0601767001
H       -1.7443767024    1.0435754251    1.5590900083
H       -1.0744716842    2.4291530698   -0.4805656731
C       -1.0603660304   -0.7307051344    0.6276218968
H       -1.5969661814   -1.3463135910    1.3569108739
13   
From optimize.out: Frame 21 / 37, Energy=    -286.9117338504
C        1.5284047020    0.3938143983   -0.4518513962
C        1.1690935993   -0.9209786222   -0.3982489725
C       -0.1871628091   -1.4137922796   -0.3066164413
C       -1.1766129373    0.6200659098    0.7330356093
C       -0.4915845756    1.5692299292   -0.1401502347
N        0.7080315368    1.4948899133   -0.6121122849
H        2.5867042101    0.6421370649   -0.4957249940
H        1.9817658718   -1.6504857466   -0.3945453992
H       -0.5726193754   -2.1803397205   -0.9747061347
H       -1.8009127753    1.0419488814    1.5199525828
H       -1.0458994543    2.4678173804   -0.4242033138
C       -1.0634247605   -0.7254968451    0.6208405831
H       -1.6357832326   -1.3388102633    1.3243303961
13   
From optimize.out: Frame 23 / 37, Energy=    -286.9184196809
C        1.5309916238    0.3969399057   -0.4669027749
C        1.1687126874   -0.9196978181   -0.4104677384
C       -0.1735496061   -1.4215386098   -0.2793506014
C       -1.1844795346    0.6262527957    0.7257473253
C       -0.4791447201    1.5843099890   -0.1173038507
N        0.7163530398    1.5046665600   -0.6016622283
H        2.5896319740    0.6391998094   -0.5327752057
H        1.9818263833   -1.6477551980   -0.4485773488
H       -0.5362646604   -2.2502241370   -0.8821373683
H       -1.8518045717    1.0400863155    1.4805422611
H       -1.0170637395    2.5030128269   -0.3669016621
C       -1.0686390614   -0.7219579561    0.6127325923
H       -1.6765698145   -1.3332944830    1.2870565999
13   
From optimize.out: Frame 24 / 37, Energy=    -286.9206801634
C        1.5334431712    0.4000503154   -0.4824582444
C        1.1677883940   -0.9178938353   -0.4226416812
C       -0.1602031770   -1.4269503472   -0.2510273520
C       -1.1918223654    0.6317849613    0.7194192206
C       -0.4659051279    1.5983179415   -0.0927742208
N        0.7244157767    1.5146989981   -0.5909612631
H        2.5917304535    0.6362308490   -0.5722274882
H        1.9788033439   -1.6450499030   -0.4999143220
H       -0.4959882643   -2.3128290232   -0.7832169523
H       -1.8992475238    1.0384645389    1.4402755007
H       -0.9899729485    2.5326606827   -0.3122968274
C       -1.0747942843   -0.7197244278    0.6034491147
H       -1.7182474481   -1.3297607505    1.2443745155
13   
From optimize.out: Frame 25 / 37, Energy=    -286.9220406277
C        1.5357928347    0.4031579547   -0.4998423775
C        1.1666742595   -0.9150835683   -0.4350648387
C       -0.1477333411   -1.4314810616   -0.2224585275
C       -1.1986335207    0.6365162339    0.7138452801
C       -0.4534778498    1.6094935655   -0.0696021146
N        0.7319116490    1.5247677148   -0.5814148785
H        2.5929696734    0.6335662814   -0.6128706402
H        1.9738516014   -1.6416130078   -0.5463088916
H       -0.4524662418   -2.3687865971   -0.6794684585
H       -1.9421149485    1.0371466811    1.4003153344
H       -0.9632511402    2.5588285468   -0.2567448361
C       -1.0821128213   -0.7191625974    0.5930896993
H       -1.7614101547   -1.3273501461    1.1965252494
13   
From optimize.out: Frame 26 / 37, Energy=    -286.9227005539
C        1.5368110481    0.4053423609   -0.5182029508
C        1.1659213111   -0.9120616833   -0.4464365468
C       -0.1361610203   -1.4344588271   -0.1927579427
C       -1.2041085940    0.6406514084    0.7093781112
C       -0.4406972022    1.6194186717   -0.0442900303
N        0.7383260408    1.5343476172   -0.5724187328
H        2.5919274474    0.6304525764   -0.6573642206
H        1.9683708631   -1.6382860041   -0.5863291509
H       -0.4061541145   -2.4157528802   -0.5720695277
H       -1.9812958006    1.0362831595    1.3596424559
H       -0.9383739655    2.5805067341   -0.2022184624
C       -1.0894413105   -0.7202815247    0.5811727502
H       -1.8051247029   -1.3261616088    1.1418942477
13   
From optimize.out: Frame 27 / 37, Energy=    -286.9230283372
C        1.5368858227    0.4070697624   -0.5393146642
C        1.1656072487   -0.9083147063   -0.4577198834
C       -0.1261092017   -1.4381209753   -0.1626100679
C       -1.2090255842    0.6448824499    0.7056174997
C       -0.4294129689    1.6260082152   -0.0207280110
N        0.7447104409    1.5439791025   -0.5642928237
H        2.5893469068    0.6275029371   -0.7034303794
H        1.9633906914   -1.6343455398   -0.6193279439
H       -0.3589572757   -2.4554814312   -0.4630640964
H       -2.0169501748    1.0362728500    1.3190836804
H       -0.9130342210    2.5994473798   -0.1446412637
C       -1.0973887265   -0.7231694748    0.5684429659
H       -1.8490629576   -1.3257305696    1.0819849876
13   
From optimize.out: Frame 29 / 37, Energy=    -286.9239547601
C        1.5345566834    0.4068514507   -0.5597622979
C        1.1668056196   -0.9062172766   -0.4670612746
C       -0.1156074101   -1.4398597027   -0.1301354377
C       -1.2138212273    0.6486096811    0.7005408696
C       -0.4196562933    1.6321248102    0.0058335229
N        0.7500974258    1.5524891680   -0.5540276706
H        2.5827723265    0.6230799326   -0.7551632843
H        1.9598785908   -1.6324298931   -0.6466209566
H       -0.3097168274   -2.4845450232   -0.3544127550
H       -2.0503022741    1.0372014716    1.2754102604
H       -0.8906253115    2.6153880310   -0.0868557695
C       -1.1036237541   -0.7282309587    0.5542668476
H       -1.8907575483   -1.3244616909    1.0179879457
13   
From optimize.out: Frame 30 / 37, Energy=    -286.9240991265
C        1.5322760518    0.4084163361   -0.5835774223
C        1.1670907437   -0.9021761251   -0.4749756896
C       -0.1081000295   -1.4458218780   -0.0964322496
C       -1.2202343267    0.6549903665    0.6945107496
C       -0.4108969453    1.6331090606    0.0267492709
N        0.7599937772    1.5629254557   -0.5420718967
H        2.5763885513    0.6200830348   -0.8075224309
H        1.9555135255   -1.6284594465   -0.6709356342
H       -0.2632641293   -2.5102928589   -0.2470356124
H       -2.0826293128    1.0391320455    1.2323094060
H       -0.8630745223    2.6288268244   -0.0246490003
C       -1.1134692660   -0.7335099412    0.5405562030
H       -1.9295941176   -1.3272228740    0.9530743064
13   
From optimize.out: Frame 31 / 37, Energy=    -286.9242523273
C        1.5279771677    0.4049329332   -0.5980194434
C        1.1725765862   -0.9063914656   -0.4815631659
C       -0.0918403591   -1.4439295020   -0.0584369609
C       -1.2316120824    0.6573017050    0.6777966991
C       -0.4112087246    1.6386786399    0.0519538927
N        0.7671281275    1.5691372747   -0.5186856963
H        2.5621331245    0.6127111857   -0.8694540893
H        1.9532788204   -1.6341904909   -0.6988023168
H       -0.2088044237   -2.5204930588   -0.1460351714
H       -2.1149853423    1.0427204019    1.1786908818
H       -0.8462843229    2.6436425278    0.0375992748
C       -1.1158481366   -0.7432943333    0.5274527657
H       -1.9625104347   -1.3208258176    0.8975033299
13   
From optimize.out: Frame 32 / 37, Energy=    -286.9242960251
C        1.5232084802    0.4091431544   -0.6195500829
C        1.1723595013   -0.9024914155   -0.4791914753
C       -0.0862853574   -1.4529503715   -0.0207496118
C       -1.2427079282    0.6670512251    0.6606592739
C       -0.3990356829    1.6373377316    0.0760963164
N        0.7870155418    1.5804430028   -0.4914898767
H        2.5484763660    0.6100505005   -0.9347202441
H        1.9456313124   -1.6301141211   -0.7227442045
H       -0.1674485760   -2.5357964652   -0.0444058694
H       -2.1466239426    1.0443780483    1.1299336987
H       -0.8156474031    2.6510092890    0.0968548090
C       -1.1299428997   -0.7470325070    0.5104365429
H       -1.9889994118   -1.3310280715    0.8388707239
13   
From optimize.out: Frame 34 / 37, Energy=    -286.9243322818
C        1.5183159380    0.4110437490   -0.6320210919
C        1.1745727650   -0.9066366356   -0.4822433157
C       -0.0690489769   -1.4540003288    0.0156681257
C       -1.2698657903    0.6693723096    0.6097691403
C       -0.4027326772    1.6408637263    0.0885136281
N        0.8132398230    1.5860505890   -0.4414640128
H        2.5285509411    0.6030630215   -0.9987521885
H        1.9375507370   -1.6330021352   -0.7576865436
H       -0.1244614833   -2.5389945967    0.0307215989
H       -2.1787495965    1.0465310440    1.0702414712
H       -0.7877933883    2.6640451019    0.1675332452
C       -1.1390099130   -0.7554977861    0.4985954846
H       -2.0005683787   -1.3328380588    0.8311244583
13   
From optimize.out: Frame 35 / 37, Energy=    -286.9243356283
C        1.5042645672    0.4193697489   -0.6475187200
C        1.1671878689   -0.9040720251   -0.4843131046
C       -0.0611130360   -1.4564147310    0.0393509755
C       -1.2926025378    0.6684717175    0.5452221092
C       -0.3900642543    1.6398323680    0.1249364640
N        0.8474464161    1.5855820752   -0.3862253481
H        2.4977457684    0.5971178630   -1.0647834494
H        1.9311479071   -1.6234454950   -0.7716648742
H       -0.1034363137   -2.5420867948    0.0859633857
H       -2.2037319557    1.0455270254    1.0030193052
H       -0.7491599092    2.6661354482    0.2426298794
C       -1.1478596410   -0.7596590620    0.4786299947
H       -1.9998248800   -1.3363581381    0.8347533827
13   
From optimize.out: Frame 36 / 37, Energy=    -286.9243383249
C        1.5035376980    0.4255142911   -0.6445151205
C        1.1644220702   -0.9055780454   -0.4846402596
C       -0.0585517045   -1.4553050711    0.0414482244
C       -1.2909871392    0.6711360798    0.5414218192
C       -0.3878717609    1.6387500234    0.1458513185
N        0.8578212239    1.5846968985   -0.3832079679
H        2.4957645498    0.5966397040   -1.0679234221
H        1.9191119174   -1.6235205896   -0.7965938898
H       -0.1123765554   -2.5415801874    0.0785078454
H       -2.2328185316    1.0423261908    0.9384368456
H       -0.7301868482    2.6672819022    0.2788079181
C       -1.1408808592   -0.7611911964    0.4931705073
H       -1.9869840602   -1.3391700000    0.8592361815
13   
From optimize.out: Frame 1 / 2, Energy=    -286.9243414232
C        1.5035376980    0.4255142910   -0.6445151205
C        1.1644220702   -0.9055780454   -0.4846402596
C       -0.0585517045   -1.4553050711    0.0414482244
C       -1.2909871391    0.6711360798    0.5414218192
C       -0.3878717608    1.6387500233    0.1458513185
N        0.8578212239    1.5846968985   -0.3832079680
H        2.4957645498    0.5966397039   -1.0679234221
H        1.9191119173   -1.6235205895   -0.7965938898
H       -0.1123765554   -2.5415801874    0.0785078455
H       -2.2328185316    1.0423261908    0.9384368455
H       -0.7301868482    2.6672819023    0.2788079180
C       -1.1408808593   -0.7611911964    0.4931705073
H       -1.9869840602   -1.3391700000    0.8592361815
