13   
From optimize.out: Frame 20 / 21, Energy=    -286.8754792730
C        1.6790276777    0.4830999984   -0.3260927528
C        1.1480824923   -0.8118775612   -0.4378191510
C       -0.3405772721   -0.7026571801   -0.4748621500
C       -1.2156312520    0.6018872471    0.9537731764
C       -0.5216060231    0.8648089160   -0.3834391384
N        0.7980311247    1.4779680468   -0.2908272691
H        2.7418748682    0.7076444539   -0.2455474248
H        1.7219389641   -1.7321137312   -0.4438373823
H       -0.8234852605   -1.2474930973   -1.2968410911
H       -1.6253226247    1.2818949857    1.6946776604
H       -1.1307923854    1.3573470143   -1.1512337864
C       -1.0771352298   -0.7264035322    0.8767470070
H       -1.3544050797   -1.5541055605    1.5253023026
13   
From optimize.out: Frame 18 / 21, Energy=    -286.8753728372
C        1.6788817896    0.4830403104   -0.3387937327
C        1.1527516210   -0.8146355403   -0.4305504357
C       -0.3389767063   -0.7028387982   -0.4791784643
C       -1.2040151364    0.5983992666    0.9600860530
C       -0.5260665256    0.8647400044   -0.3893354570
N        0.7906382279    1.4719233787   -0.3115956127
H        2.7407977557    0.7145614013   -0.2655961512
H        1.7220035082   -1.7355452759   -0.3894898777
H       -0.8060065522   -1.2554596691   -1.3043554891
H       -1.6062483745    1.2777694469    1.7051231609
H       -1.1477846604    1.3895606137   -1.1248773898
C       -1.0819293990   -0.7304197581    0.8651604138
H       -1.3740455481   -1.5610953804    1.5034029824
13   
From optimize.out: Frame 16 / 21, Energy=    -286.8748748160
C        1.6699998548    0.4877159141   -0.3462071122
C        1.1381834516   -0.8099198215   -0.4196541284
C       -0.3608296945   -0.7064601401   -0.4926818569
C       -1.1913278026    0.5844600451    0.9560520866
C       -0.5169672561    0.8674744167   -0.3926965915
N        0.7888795121    1.4834097965   -0.3403464338
H        2.7299787026    0.7210265241   -0.2687874603
H        1.7051791884   -1.7226976806   -0.2748856090
H       -0.8246727286   -1.2019481822   -1.3558381354
H       -1.5332281066    1.2570211605    1.7356851837
H       -1.1619264180    1.3564684237   -1.1335801364
C       -1.0811346296   -0.7453074235    0.8443159459
H       -1.3621340736   -1.5712430328    1.4886242478
13   
From optimize.out: Frame 13 / 21, Energy=    -286.8723117886
C        1.6597198703    0.4896816156   -0.3471117739
C        1.1277871306   -0.8033937619   -0.3982064777
C       -0.3704497976   -0.7096624704   -0.5133472084
C       -1.1611163924    0.5731844352    0.9621229760
C       -0.5211398350    0.8802261510   -0.3937592122
N        0.7786000355    1.4833620499   -0.4001526666
H        2.7151743528    0.7298557267   -0.2538146852
H        1.6877914666   -1.7067934320   -0.1758447413
H       -0.8258465986   -1.1785744455   -1.3952761565
H       -1.4426028874    1.2362968618    1.7736907386
H       -1.1911897427    1.3362971064   -1.1335886315
C       -1.0858745300   -0.7541075820    0.8175572261
H       -1.3708530722   -1.5763722549    1.4577306125
13   
From optimize.out: Frame 12 / 21, Energy=    -286.8687055824
C        1.6452227510    0.4960621929   -0.3257891064
C        1.1165874417   -0.7923125160   -0.3882175035
C       -0.3798424879   -0.7210631283   -0.5187878295
C       -1.1332912941    0.5556639008    0.9506102689
C       -0.5205241902    0.8582561178   -0.4125968729
N        0.7642984813    1.4812250274   -0.4562730816
H        2.6967708377    0.7401539702   -0.2128020635
H        1.6762598623   -1.6832050375   -0.1150728465
H       -0.8501159543   -1.1090731682   -1.4315460286
H       -1.3392487170    1.2224459496    1.7819600509
H       -1.2114193894    1.3036826698   -1.1384137124
C       -1.0922877462   -0.7690478385    0.8090745205
H       -1.3724095949   -1.5827881401    1.4578542047
13   
From optimize.out: Frame 11 / 21, Energy=    -286.8625629266
C        1.6329624584    0.5022434223   -0.3177998284
C        1.1071063200   -0.7815165007   -0.3709787004
C       -0.3818471932   -0.7429751864   -0.5274722368
C       -1.1052982492    0.5398427823    0.9467971261
C       -0.5261162032    0.8744363539   -0.4145811272
N        0.7580734541    1.4798307178   -0.5313397494
H        2.6821108610    0.7451027408   -0.1863862532
H        1.6628428124   -1.6549982676   -0.0341201183
H       -0.8556210075   -1.0732786575   -1.4598918550
H       -1.2351169365    1.1936365363    1.8052716152
H       -1.2409178430    1.2859280163   -1.1350191776
C       -1.1073986200   -0.7799160380    0.7880034402
H       -1.3907798533   -1.5883359195    1.4375168647
13   
From optimize.out: Frame 10 / 21, Energy=    -286.8540420596
C        1.6204502501    0.5106320792   -0.3041594290
C        1.1051268900   -0.7700305385   -0.3641627759
C       -0.3718341672   -0.7809120500   -0.5250123141
C       -1.0852061875    0.5234530042    0.9393674756
C       -0.5353533062    0.9010282813   -0.4144003064
N        0.7569628211    1.4731608584   -0.6146536287
H        2.6715370075    0.7458751644   -0.1616693829
H        1.6652120045   -1.6232289517    0.0182675537
H       -0.8499845812   -1.0390326728   -1.4755160958
H       -1.1363088047    1.1606379797    1.8214224969
H       -1.2702421848    1.2803266742   -1.1289384658
C       -1.1387268713   -0.7890491112    0.7774145180
H       -1.4316328704   -1.5928607171    1.4320403544
13   
From optimize.out: Frame 8 / 21, Energy=    -286.8275226693
C        1.6123513214    0.5126252859   -0.3120536858
C        1.1142880607   -0.7740610531   -0.3632194996
C       -0.3501528762   -0.8435521571   -0.5203941294
C       -1.0871828122    0.5194117419    0.9312392780
C       -0.5491555749    0.9648918906   -0.4010821943
N        0.7627642841    1.4767459552   -0.6717038543
H        2.6696915601    0.7351101875   -0.1717371202
H        1.6891463205   -1.6000748248    0.0564359219
H       -0.8183554664   -1.0778729060   -1.4801424575
H       -1.0866155108    1.1259351786    1.8387649553
H       -1.2967202833    1.3418705912   -1.1015641458
C       -1.1773685350   -0.7913856206    0.7644244507
H       -1.4826904880   -1.5896442692    1.4310324809
13   
From optimize.out: Frame 7 / 21, Energy=    -286.8081201075
C        1.6064034902    0.5126106233   -0.3281493134
C        1.1275070055   -0.7841203930   -0.3656254214
C       -0.3239254092   -0.9042586643   -0.5195427225
C       -1.0983307790    0.5219939039    0.9256346970
C       -0.5668213163    1.0251193301   -0.3836538904
N        0.7734288208    1.4861129912   -0.7160210729
H        2.6706362420    0.7208785694   -0.1912547652
H        1.7170346650   -1.5812227885    0.0891345279
H       -0.7768873504   -1.1384597511   -1.4851170204
H       -1.0538964960    1.0949710376    1.8560141950
H       -1.3229417082    1.4177173538   -1.0643283506
C       -1.2189694965   -0.7888526496    0.7514160986
H       -1.5332376678   -1.5824895628    1.4314930381
13   
From optimize.out: Frame 6 / 21, Energy=    -286.7798769413
C        1.6110082959    0.5124175659   -0.3498400290
C        1.1456115615   -0.7955382835   -0.3735050228
C       -0.2920375975   -0.9547308931   -0.5217748895
C       -1.1232253693    0.5282977906    0.9245003765
C       -0.5928287253    1.0741961625   -0.3620854983
N        0.8013602440    1.5030520302   -0.7567861166
H        2.6835161235    0.7001874319   -0.2160738686
H        1.7470312572   -1.5657353569    0.1119224760
H       -0.7294079368   -1.1960022954   -1.4912557084
H       -1.0426451012    1.0701405579    1.8738135796
H       -1.3558912665    1.4844269976   -1.0228655606
C       -1.2662930816   -0.7838909413    0.7452995143
H       -1.5861984039   -1.5768207663    1.4386507474
13   
From optimize.out: Frame 5 / 21, Energy=    -286.7419989578
C        1.6267877205    0.5109117003   -0.3754653880
C        1.1691918180   -0.8099295148   -0.3861497913
C       -0.2557289573   -0.9947111508   -0.5275198956
C       -1.1593996762    0.5392308266    0.9284546135
C       -0.6259262825    1.1143980634   -0.3381462931
N        0.8401899564    1.5237612846   -0.7919104009
H        2.7076900696    0.6758867100   -0.2438872590
H        1.7796104938   -1.5574828681    0.1232691833
H       -0.6775864757   -1.2471420623   -1.4995524144
H       -1.0532945565    1.0548298586    1.8927508318
H       -1.3965567418    1.5397612739   -0.9795910465
C       -1.3154980043   -0.7766295983    0.7458228210
H       -1.6394793640   -1.5728845231    1.4519250394
13   
From optimize.out: Frame 4 / 21, Energy=    -286.6973519848
C        1.6492069777    0.5075476355   -0.4020279475
C        1.1974993232   -0.8286709548   -0.4011870455
C       -0.2166391510   -1.0269295477   -0.5357687375
C       -1.2005155656    0.5551365897    0.9370064565
C       -0.6627024751    1.1494804388   -0.3139967307
N        0.8781916761    1.5427612694   -0.8222329717
H        2.7377995324    0.6521924396   -0.2718501089
H        1.8145397472   -1.5579554143    0.1263935701
H       -0.6222685612   -1.2910116274   -1.5104146565
H       -1.0762272628    1.0489411506    1.9135498410
H       -1.4433812002    1.5853950348   -0.9360561020
C       -1.3635503508   -0.7667306398    0.7492300212
H       -1.6919526897   -1.5701563743    1.4673544114
13   
From optimize.out: Frame 1 / 21, Energy=    -286.5896370306
C        1.6747138684    0.5026439768   -0.4281039726
C        1.2296469363   -0.8512086709   -0.4172492276
C       -0.1753213692   -1.0527962249   -0.5446975843
C       -1.2434177737    0.5753233684    0.9492876764
C       -0.7011649246    1.1811940745   -0.2905497196
N        0.9097126588    1.5576046134   -0.8508790222
H        2.7707349765    0.6300779739   -0.2988417576
H        1.8508116317   -1.5658808769    0.1250421136
H       -0.5626873033   -1.3270057925   -1.5229612880
H       -1.1032130369    1.0502234003    1.9364951817
H       -1.4952420930    1.6225123040   -0.8920952564
C       -1.4103508050   -0.7539218943    0.7526684817
H       -1.7442227659   -1.5687662517    1.4818843747
13   
C6H6N->C6H6N atoms 1-13 frame 308 charge +0.000 sz -1.000 sz^2 2.148
C        1.6992795234    0.4953014369   -0.4524903164
C        1.2660148721   -0.8760547903   -0.4335399254
C       -0.1308875883   -1.0680746229   -0.5527481532
C       -1.2862395024    0.5993053859    0.9651505068
C       -0.7416297129    1.2073237234   -0.2690126256
N        0.9275023062    1.5608323944   -0.8830682896
H        2.8028901486    0.6087243188   -0.3223917380
H        1.8853195705   -1.5795604352    0.1247478017
H       -0.4924662493   -1.3512151531   -1.5368296290
H       -1.1227620519    1.0552732121    1.9621504404
H       -1.5550195186    1.6488496848   -0.8441440112
C       -1.4559223975   -0.7347672342    0.7520963681
H       -1.7960793998   -1.5659379206    1.4900795713
13   
C6H6N->C6H6N atoms 1-13 frame 309 charge +0.000 sz -1.000 sz^2 2.121
C        1.7207132225    0.4849221342   -0.4747350638
C        1.3039514203   -0.9031696188   -0.4503925701
C       -0.0861728181   -1.0804518660   -0.5596955279
C       -1.3280862798    0.6265640947    0.9792620453
C       -0.7796378844    1.2348973465   -0.2479778288
N        0.9329545071    1.5639647696   -0.9170509365
H        2.8330039277    0.5840918243   -0.3425084428
H        1.9201047629   -1.5981820964    0.1203698281
H       -0.4176275937   -1.3720677276   -1.5497021463
H       -1.1446970232    1.0665470023    1.9849776483
H       -1.6145043986    1.6754474358   -0.7914682968
C       -1.4963164345   -0.7164932081    0.7488927315
H       -1.8436854083   -1.5660700904    1.5000285598
13   
C6H6N->C6H6N atoms 1-13 frame 310 charge -0.000 sz -1.000 sz^2 2.078
C        1.7270418346    0.4752236292   -0.4774272285
C        1.3243616794   -0.9282207743   -0.4494217552
C       -0.0816202788   -1.0937349820   -0.5490121217
C       -1.3463036365    0.6423372060    0.9753576530
C       -0.7921796218    1.2591748176   -0.2424539395
N        0.9308806448    1.5485404301   -0.9217918851
H        2.8518571340    0.6156648008   -0.3735232036
H        1.9444410295   -1.6330852873    0.1183699962
H       -0.3497973990   -1.3558864754   -1.5544158857
H       -1.1136297709    1.0635461175    1.9765338830
H       -1.6647305576    1.6904127093   -0.7618176366
C       -1.5429471626   -0.7162633665    0.7570557013
H       -1.8873738951   -1.5677088249    1.5025464226
13   
C6H6N->C6H6N atoms 1-13 frame 311 charge +0.000 sz -1.000 sz^2 2.039
C        1.7227656326    0.4638783777   -0.4635640896
C        1.3322118631   -0.9510972121   -0.4294901467
C       -0.1122973102   -1.1100833503   -0.5204382790
C       -1.3420941674    0.6446758138    0.9600480800
C       -0.7817472137    1.2798769690   -0.2478977394
N        0.9223155897    1.5147827117   -0.8983180065
H        2.8516636596    0.6981071794   -0.4178716953
H        1.9635868305   -1.6832558438    0.1152625455
H       -0.2959449359   -1.3124714476   -1.5545612349
H       -1.0464261698    1.0467417981    1.9430368347
H       -1.6975679638    1.6988899054   -0.7552385992
C       -1.5938884684   -0.7332391355    0.7789184378
H       -1.9225773464   -1.5568057659    1.4901138927
13   
From optimize.out: Frame 1 / 37, Energy=    -286.5877433464
C        1.7122010258    0.4565928585   -0.4468552870
C        1.3287629183   -0.9587577947   -0.4067975567
C       -0.1439373882   -1.1215588547   -0.4972194401
C       -1.3242060003    0.6353799724    0.9467060317
C       -0.7621788551    1.2882581855   -0.2562632703
N        0.9088570340    1.4890747733   -0.8711599583
H        2.8284689891    0.7588405488   -0.4438189048
H        1.9683993120   -1.7097899447    0.1118866373
H       -0.2860382771   -1.2808297358   -1.5578158250
H       -0.9996299539    1.0315906006    1.9162909959
H       -1.6903479775    1.7006722774   -0.7679574544
C       -1.6132877435   -0.7492376949    0.7957044259
H       -1.9270630836   -1.5402351917    1.4772996057
13   
From optimize.out: Frame 2 / 37, Energy=    -286.6430874522
C        1.6815194222    0.4645932683   -0.4260170654
C        1.2911744901   -0.9310719397   -0.3920871956
C       -0.1725452675   -1.1152670933   -0.4996694334
C       -1.2829370024    0.6097928564    0.9320797865
C       -0.7279553791    1.2681041075   -0.2732897417
N        0.8903002786    1.4923124550   -0.8473654143
H        2.7858120031    0.7552225206   -0.4124603216
H        1.9299408513   -1.6775286705    0.1208181589
H       -0.3580587204   -1.2724364177   -1.5579315001
H       -0.9829378599    1.0206809170    1.9036632342
H       -1.6245477380    1.6817043342   -0.8161573796
C       -1.5598992223   -0.7566045933    0.7890470531
H       -1.8698658558   -1.5395017444    1.4793698188
13   
From optimize.out: Frame 3 / 37, Energy=    -286.6952452699
C        1.6471119454    0.4691776542   -0.4027955842
C        1.2553940739   -0.9064713961   -0.3790291015
C       -0.2005152767   -1.1062964957   -0.5033795201
C       -1.2414112524    0.5883476472    0.9183092343
C       -0.6931317968    1.2483046648   -0.2917636856
N        0.8568615716    1.4883189365   -0.8246996569
H        2.7403066407    0.7532137224   -0.3759827327
H        1.8913261487   -1.6507594975    0.1296599509
H       -0.4226233329   -1.2632322644   -1.5565805456
H       -0.9590344177    1.0132303549    1.8892527123
H       -1.5621704226    1.6631356214   -0.8576402412
C       -1.5034247512   -0.7608293386    0.7778554488
H       -1.8086891301   -1.5361396090    1.4767937216
13   
From optimize.out: Frame 4 / 37, Energy=    -286.7425620681
C        1.6117052705    0.4722745072   -0.3789957501
C        1.2207654031   -0.8847865653   -0.3657190728
C       -0.2282381138   -1.0992333213   -0.5058747419
C       -1.1987825320    0.5696516350    0.9040605347
C       -0.6573522522    1.2323333171   -0.3112502873
N        0.8157652525    1.4824099555   -0.8011911962
H        2.6939380175    0.7529124170   -0.3387373645
H        1.8547643832   -1.6275855145    0.1376640335
H       -0.4857908330   -1.2562991500   -1.5529561924
H       -0.9336761601    1.0078900365    1.8739828667
H       -1.5007710394    1.6493041225   -0.8970933890
C       -1.4459013502   -0.7656353620    0.7641077418
H       -1.7464260459   -1.5332360779    1.4720028176
13   
From optimize.out: Frame 6 / 37, Energy=    -286.8072292042
C        1.5758782458    0.4732931638   -0.3554204245
C        1.1876295155   -0.8671440246   -0.3519614464
C       -0.2553495763   -1.0979008965   -0.5064890752
C       -1.1555942837    0.5542843842    0.8881293016
C       -0.6215158686    1.2244462702   -0.3310265960
N        0.7674770127    1.4752449972   -0.7760613843
H        2.6471218295    0.7532924454   -0.3014715108
H        1.8219556887   -1.6080490882    0.1446901426
H       -0.5484642278   -1.2569700463   -1.5459046749
H       -0.9097197506    1.0040707248    1.8576685214
H       -1.4410250051    1.6466319677   -0.9332587336
C       -1.3863626958   -0.7713378155    0.7462937852
H       -1.6820308845   -1.5298620823    1.4648120950
13   
From optimize.out: Frame 7 / 37, Energy=    -286.8220107331
C        1.5423908618    0.4706603817   -0.3345051529
C        1.1572912393   -0.8552514283   -0.3378843767
C       -0.2806936066   -1.1093283540   -0.5037546314
C       -1.1152778262    0.5432615021    0.8687316660
C       -0.5891541174    1.2327323322   -0.3484871070
N        0.7162091118    1.4686550604   -0.7496004619
H        2.6030925398    0.7506192407   -0.2664750513
H        1.7965702593   -1.5925592588    0.1495535388
H       -0.6104473666   -1.2761350499   -1.5327228860
H       -0.8968999681    1.0011804243    1.8403894246
H       -1.3863241813    1.6678474612   -0.9614736291
C       -1.3228300576   -0.7780477761    0.7215190549
H       -1.6139268882   -1.5236345354    1.4547096119
13   
From optimize.out: Frame 8 / 37, Energy=    -286.8329242316
C        1.5213599049    0.4619282306   -0.3225756622
C        1.1348480756   -0.8511221168   -0.3256073886
C       -0.3000983560   -1.1396823715   -0.4946779584
C       -1.0893533307    0.5379697933    0.8463644719
C       -0.5696258112    1.2650886544   -0.3569886289
N        0.6787609169    1.4669053604   -0.7261729808
H        2.5744584220    0.7372793212   -0.2413706056
H        1.7869012649   -1.5849173610    0.1441061822
H       -0.6661279469   -1.3253520147   -1.5090576235
H       -0.9241899953    1.0022617990    1.8240937996
H       -1.3460927024    1.7274133715   -0.9717496397
C       -1.2552163048   -0.7857351474    0.6903047873
H       -1.5456241371   -1.5120375191    1.4433312468
13   
From optimize.out: Frame 9 / 37, Energy=    -286.8424465427
C        1.5187913409    0.4480694260   -0.3232936014
C        1.1284948257   -0.8555299762   -0.3231724736
C       -0.3046197472   -1.1776548452   -0.4843581580
C       -1.0875832987    0.5391228704    0.8302357538
C       -0.5663914900    1.3049287385   -0.3515524266
N        0.6673554049    1.4672559682   -0.7098599257
H        2.5684834108    0.7166539747   -0.2334289015
H        1.7996848024   -1.5917974349    0.1126854162
H       -0.6995319450   -1.3908905682   -1.4823108838
H       -1.0089696913    1.0146303120    1.8120036180
H       -1.3219049490    1.8084242383   -0.9585478478
C       -1.1966287867   -0.7898264138    0.6697642691
H       -1.4971798768   -1.4933862898    1.4418351614
13   
From optimize.out: Frame 10 / 37, Energy=    -286.8508919661
C        1.5189288995    0.4338205831   -0.3297033509
C        1.1314421683   -0.8654131524   -0.3279169355
C       -0.2980842952   -1.2168231151   -0.4786947484
C       -1.0949061607    0.5442666537    0.8194368210
C       -0.5657933910    1.3410341536   -0.3385576063
N        0.6619791263    1.4650600652   -0.6966129201
H        2.5664388588    0.7008088275   -0.2369487395
H        1.8232486190   -1.6046909071    0.0692632498
H       -0.7131952971   -1.4630294588   -1.4601468235
H       -1.1059317909    1.0275987118    1.7991344382
H       -1.2987021835    1.8940715715   -0.9292225790
C       -1.1545611131   -0.7876181648    0.6610804803
H       -1.4708634403   -1.4690857682    1.4488887139
13   
From optimize.out: Frame 12 / 37, Energy=    -286.8654868593
C        1.5209599891    0.4209318587   -0.3393319116
C        1.1362158375   -0.8767396540   -0.3312984861
C       -0.2892599488   -1.2519309529   -0.4687734955
C       -1.1050312354    0.5507251337    0.8078654036
C       -0.5661871787    1.3764060358   -0.3223182961
N        0.6621230800    1.4631408062   -0.6873389625
H        2.5682475628    0.6871965732   -0.2493317289
H        1.8477891244   -1.6186062640    0.0257945301
H       -0.7192603726   -1.5357377837   -1.4323686163
H       -1.2031187035    1.0357153929    1.7806998935
H       -1.2776457104    1.9799340568   -0.8896910685
C       -1.1209725260   -0.7833734345    0.6541559741
H       -1.4538599186   -1.4476617682    1.4519367643
13   
From optimize.out: Frame 13 / 37, Energy=    -286.8717859321
C        1.5198708649    0.4096660961   -0.3509536433
C        1.1428092969   -0.8887599944   -0.3374944618
C       -0.2768179794   -1.2876952598   -0.4581554303
C       -1.1149228587    0.5591913866    0.7973577288
C       -0.5622246273    1.4085278875   -0.3027635017
N        0.6605019565    1.4602153243   -0.6777927963
H        2.5668733061    0.6782730190   -0.2682132812
H        1.8749322874   -1.6303446469   -0.0219864074
H       -0.7159655113   -1.6129630364   -1.4032642774
H       -1.2949738723    1.0418281264    1.7586400616
H       -1.2508459000    2.0629895466   -0.8409821629
C       -1.0977297103   -0.7758749246    0.6511917999
H       -1.4515072525   -1.4250535244    1.4544163720
13   
From optimize.out: Frame 14 / 37, Energy=    -286.8775162477
C        1.5213880536    0.4005568190   -0.3646515215
C        1.1494125084   -0.8994055888   -0.3423668382
C       -0.2650392804   -1.3138076917   -0.4415396543
C       -1.1263385121    0.5678595601    0.7860027064
C       -0.5577039689    1.4372893100   -0.2824363622
N        0.6648940486    1.4588813450   -0.6706495926
H        2.5696307376    0.6696420876   -0.2936062393
H        1.8998834916   -1.6410930380   -0.0709144835
H       -0.7091580218   -1.6891392958   -1.3644794573
H       -1.3875110119    1.0455175438    1.7306536279
H       -1.2244839781    2.1407008654   -0.7856912899
C       -1.0793312185   -0.7685301983    0.6489059532
H       -1.4556428481   -1.4084717182    1.4507731512
13   
From optimize.out: Frame 15 / 37, Energy=    -286.8829611968
C        1.5216469090    0.3946935610   -0.3793170484
C        1.1554246276   -0.9076958758   -0.3484848413
C       -0.2522818881   -1.3385490462   -0.4229584289
C       -1.1356311422    0.5772892479    0.7758244562
C       -0.5491658758    1.4637126232   -0.2597250759
N        0.6694414152    1.4597019438   -0.6631243587
H        2.5715457649    0.6637285964   -0.3243674873
H        1.9229302633   -1.6475669707   -0.1211627210
H       -0.6958994096   -1.7711527122   -1.3198080357
H       -1.4712311500    1.0470390190    1.7003912452
H       -1.1950649029    2.2117281352   -0.7251766941
C       -1.0686750595   -0.7600872374    0.6465007716
H       -1.4730395519   -1.3928412842    1.4414082183
13   
From optimize.out: Frame 17 / 37, Energy=    -286.8932750543
C        1.5227877422    0.3908540699   -0.3942660612
C        1.1608751153   -0.9139480301   -0.3569084447
C       -0.2393524113   -1.3584975317   -0.4029465189
C       -1.1450064145    0.5869306607    0.7665403630
C       -0.5397491899    1.4882280831   -0.2360320024
N        0.6762741705    1.4635794853   -0.6533945089
H        2.5746573041    0.6577889934   -0.3563441849
H        1.9427665619   -1.6520048754   -0.1744234435
H       -0.6791951501   -1.8548426734   -1.2673357817
H       -1.5503019467    1.0478241683    1.6674292366
H       -1.1657821003    2.2745168225   -0.6642958131
C       -1.0614203119   -0.7517597410    0.6439723357
H       -1.4965533693   -1.3786694317    1.4280048240
13   
From optimize.out: Frame 18 / 37, Energy=    -286.8982517582
C        1.5229530128    0.3901561846   -0.4085512111
C        1.1639554243   -0.9172867230   -0.3640942216
C       -0.2272943285   -1.3764318532   -0.3802524281
C       -1.1524205895    0.5954896258    0.7566080384
C       -0.5283062521    1.5104457192   -0.2135642676
N        0.6826703985    1.4687372992   -0.6467249352
H        2.5768572461    0.6539804564   -0.3907988744
H        1.9580325896   -1.6525413258   -0.2256550175
H       -0.6580944928   -1.9407045987   -1.2059568429
H       -1.6177694621    1.0459138847    1.6331323172
H       -1.1340915793    2.3339137012   -0.6001545548
C       -1.0595700111   -0.7443134488    0.6385388010
H       -1.5269219558   -1.3673589215    1.4074731966
13   
From optimize.out: Frame 19 / 37, Energy=    -286.9030567768
C        1.5249946397    0.3895773051   -0.4233192704
C        1.1675339822   -0.9206009441   -0.3765421347
C       -0.2133710522   -1.3913680374   -0.3578047691
C       -1.1613515188    0.6051140493    0.7492979089
C       -0.5167552335    1.5326535642   -0.1870757972
N        0.6917508744    1.4772643785   -0.6321631556
H        2.5808432597    0.6488547652   -0.4241925144
H        1.9705064066   -1.6542347736   -0.2844819139
H       -0.6336075853   -2.0233695614   -1.1379541773
H       -1.6870543526    1.0459937205    1.5961475269
H       -1.1061518136    2.3816572077   -0.5428589815
C       -1.0575824492   -0.7366012915    0.6349545131
H       -1.5597551574   -1.3549403826    1.3859927653
13   
From optimize.out: Frame 20 / 37, Energy=    -286.9075905897
C        1.5261619531    0.3915654688   -0.4375367230
C        1.1685025631   -0.9208475100   -0.3861554596
C       -0.2007761003   -1.4039546983   -0.3328796073
C       -1.1687883370    0.6125142987    0.7403691659
C       -0.5046249239    1.5511196963   -0.1650150680
N        0.6991429981    1.4852046317   -0.6241844975
H        2.5833956436    0.6456731611   -0.4597690451
H        1.9780149405   -1.6518936170   -0.3378604796
H       -0.6049175448   -2.1047545907   -1.0603028247
H       -1.7443489208    1.0434277130    1.5592199499
H       -1.0745425435    2.4291620787   -0.4803616559
C       -1.0603287844   -0.7307727057    0.6276061495
H       -1.5968909437   -1.3464439268    1.3568700953
13   
From optimize.out: Frame 21 / 37, Energy=    -286.9117338504
C        1.5283769256    0.3938837525   -0.4518848974
C        1.1690997451   -0.9209217914   -0.3983623360
C       -0.1871410555   -1.4137747859   -0.3067103668
C       -1.1765982838    0.6199848654    0.7331276740
C       -0.4916281402    1.5692281111   -0.1400177166
N        0.7079706903    1.4949509524   -0.6120335865
H        2.5866686617    0.6422351312   -0.4957834421
H        1.9817897857   -1.6504095493   -0.3947439770
H       -0.5726061107   -2.1802835763   -0.9748395066
H       -1.8008765044    1.0417962666    1.5201001626
H       -1.0459762024    2.4678225611   -0.4239838847
C       -1.0633821434   -0.7255670976    0.6208314805
H       -1.6356973679   -1.3389448397    1.3243003965
13   
From optimize.out: Frame 23 / 37, Energy=    -286.9184196809
C        1.5309588018    0.3970132943   -0.4669479986
C        1.1687159934   -0.9196377895   -0.4105928027
C       -0.1735271857   -1.4215223199   -0.2794474071
C       -1.1844600347    0.6261690220    0.7258514271
C       -0.4791905991    1.5843065224   -0.1171631785
N        0.7162855699    1.5047292701   -0.6015857192
H        2.5895897985    0.6393049154   -0.5328540869
H        1.9818462867   -1.6476717299   -0.4487959562
H       -0.5362506127   -2.2501724049   -0.8822778577
H       -1.8517587720    1.0399297296    1.4807095293
H       -1.0171450724    2.5030142017   -0.3666667410
C       -1.0685908931   -0.7220304200    0.6127312131
H       -1.6764732807   -1.3334322914    1.2870395783
13   
From optimize.out: Frame 24 / 37, Energy=    -286.9206801634
C        1.5334047316    0.4001272758   -0.4825165945
C        1.1677879293   -0.9178310093   -0.4227793838
C       -0.1601803642   -1.4269353877   -0.2511269260
C       -1.1917972090    0.6316988666    0.7195364879
C       -0.4659523522    1.5983128131   -0.0926252854
N        0.7243418656    1.5147630462   -0.5908876903
H        2.5916806251    0.6363423703   -0.5723291537
H        1.9788174379   -1.6449599415   -0.5001545007
H       -0.4959731006   -2.3127822549   -0.7833646456
H       -1.8991912349    1.0383049255    1.4404647889
H       -0.9900573584    2.5326585740   -0.3120462388
C       -1.0747404633   -0.7197986065    0.6034564956
H       -1.7181405070   -1.3299006717    1.2443726464
13   
From optimize.out: Frame 25 / 37, Energy=    -286.9220406277
C        1.5357480565    0.4032382670   -0.4999151697
C        1.1666691750   -0.9150182138   -0.4352159041
C       -0.1477101443   -1.4314675691   -0.2225607289
C       -1.1986020261    0.6364281653    0.7139766735
C       -0.4535256661    1.6094868756   -0.0694450812
N        0.7318313021    1.5248328956   -0.5813450721
H        2.5929110402    0.6336837615   -0.6129972347
H        1.9738584008   -1.6415173159   -0.5465717995
H       -0.4524490226   -2.3687454262   -0.6796234373
H       -1.9420475071    1.0369848779    1.4005286825
H       -0.9633370913    2.5588228785   -0.2564787063
C       -1.0820532455   -0.7192380730    0.5931068698
H       -1.7612932716   -1.3274911235    1.1965409078
13   
From optimize.out: Frame 26 / 37, Energy=    -286.9227005539
C        1.5367591939    0.4054256147   -0.5182915938
C        1.1659106874   -0.9119942226   -0.4466020770
C       -0.1361375120   -1.4344469655   -0.1928627898
C       -1.2040698869    0.6405617289    0.7095247824
C       -0.4407444139    1.6194103352   -0.0441247412
N        0.7382394316    1.5344136753   -0.5723533643
H        2.5918585273    0.6305755336   -0.6575180097
H        1.9683687983   -1.6381856001   -0.5866165462
H       -0.4061340573   -2.4157177392   -0.5722321380
H       -1.9812164399    1.0361200926    1.3598823538
H       -0.9384595873    2.5804976824   -0.2019364376
C       -1.0893759851   -0.7203577719    0.5812006994
H       -1.8049987562   -1.3263023633    1.1419298620
13   
From optimize.out: Frame 27 / 37, Energy=    -286.9230283372
C        1.5368259337    0.4071559198   -0.5394202787
C        1.1655903470   -0.9082453349   -0.4579005463
C       -0.1260850219   -1.4381109473   -0.1627174702
C       -1.2089790921    0.6447914214    0.7057803276
C       -0.4294588425    1.6259982993   -0.0205547477
N        0.7446175291    1.5440458784   -0.5642327193
H        2.5892661779    0.6276311398   -0.7036131400
H        1.9633787881   -1.6342412198   -0.6196408821
H       -0.3589327909   -2.4554528762   -0.4632344617
H       -2.0168586833    1.0361092644    1.3193520482
H       -0.9131176600    2.5994346090   -0.1443437454
C       -1.0973176470   -0.7232461422    0.5684826393
H       -1.8489290381   -1.3258700117    1.0820429761
13   
From optimize.out: Frame 29 / 37, Energy=    -286.9239547601
C        1.5344880876    0.4069400261   -0.5598859454
C        1.1667816705   -0.9061464020   -0.4672585708
C       -0.1155823529   -1.4398517306   -0.1302458545
C       -1.2137663210    0.6485177139    0.7007211236
C       -0.4196993014    1.6321130908    0.0060154650
N        0.7499988131    1.5525562832   -0.5539730972
H        2.5826777997    0.6232131273   -0.7553766345
H        1.9598555284   -1.6323225612   -0.6469617238
H       -0.3096869787   -2.4845231803   -0.3545919179
H       -2.0501984734    1.0370383017    1.2757097715
H       -0.8907041477    2.6153715939   -0.0865417243
C       -1.1035471398   -0.7283075472    0.5543187578
H       -1.8906171846   -1.3245987156    1.0180703504
13   
From optimize.out: Frame 30 / 37, Energy=    -286.9240991265
C        1.5321976346    0.4085075498   -0.5837194535
C        1.1670595208   -0.9021039951   -0.4751893593
C       -0.1080730243   -1.4458163434   -0.0965454327
C       -1.2201711378    0.6548977464    0.6947090829
C       -0.4109369668    1.6330958738    0.0269388760
N        0.7598896889    1.5629926552   -0.5420240614
H        2.5762785880    0.6202212997   -0.8077670395
H        1.9554787687   -1.6283494488   -0.6713038062
H       -0.2632264656   -2.5102783247   -0.2472233673
H       -2.0825139444    1.0389698843    1.2326410610
H       -0.8631467893    2.6288061575   -0.0243204252
C       -1.1133872524   -0.7335863498    0.5406214408
H       -1.9294486204   -1.3273567050    0.9531824844
13   
From optimize.out: Frame 31 / 37, Energy=    -286.9242523273
C        1.5278897054    0.4050254592   -0.5981802283
C        1.1725373235   -0.9063184159   -0.4817961978
C       -0.0918113886   -1.4439265552   -0.0585551785
C       -1.2315411848    0.6572094860    0.6780149112
C       -0.4112434525    1.6386635492    0.0521546006
N        0.7670214739    1.5692033998   -0.5186433757
H        2.5620053546    0.6128543258   -0.8697296685
H        1.9532299083   -1.6340781173   -0.6992017022
H       -0.2087595375   -2.5204851755   -0.1462352687
H       -2.1148595143    1.0425607109    1.1790578563
H       -0.8463463141    2.6436177184    0.0379466852
C       -1.1157612321   -0.7433700743    0.5275298622
H       -1.9623611418   -1.3209563110    0.8976377041
13   
From optimize.out: Frame 32 / 37, Energy=    -286.9242960251
C        1.5231103400    0.4092376816   -0.6197289023
C        1.1723133084   -0.9024184385   -0.4794418569
C       -0.0862528909   -1.4529505476   -0.0208719019
C       -1.2426301757    0.6669597271    0.6608978564
C       -0.3990647643    1.6373209442    0.0763047344
N        0.7869070777    1.5805077090   -0.4914554710
H        2.5483284746    0.6101992216   -0.9350263265
H        1.9455681952   -1.6299997247   -0.7231719934
H       -0.1673930785   -2.5357964250   -0.0446169007
H       -2.1464886093    1.0442210414    1.1303358301
H       -0.8156982364    2.6509804134    0.0972163847
C       -1.1298520519   -0.7471073356    0.5105281160
H       -1.9888475890   -1.3311542669    0.8390304311
13   
From optimize.out: Frame 34 / 37, Energy=    -286.9243322818
C        1.5182107009    0.4111388153   -0.6322120324
C        1.1745198354   -0.9065637316   -0.4825092140
C       -0.0690139857   -1.4540033834    0.0155382902
C       -1.2697881677    0.6692849613    0.6100266129
C       -0.4027560292    1.6408461378    0.0887331557
N        0.8131371855    1.5861114360   -0.4414344630
H        2.5283856812    0.6032161508   -0.9990780381
H        1.9374722512   -1.6328855227   -0.7581384280
H       -0.1243998706   -2.5390003423    0.0304954688
H       -2.1786104792    1.0463788580    1.0706733874
H       -0.7878276811    2.6640112408    0.1679100047
C       -1.1389172215   -0.7555714619    0.4986955711
H       -2.0004122192   -1.3329631582    0.8312996849
13   
From optimize.out: Frame 35 / 37, Energy=    -286.9243356283
C        1.5041526990    0.4194661271   -0.6477161364
C        1.1671297422   -0.9039990492   -0.4845893262
C       -0.0610762198   -1.4564199445    0.0392149465
C       -1.2925297735    0.6683900144    0.5454947107
C       -0.3900787665    1.6398116675    0.1251626490
N        0.8473516758    1.5856385093   -0.3862015278
H        2.4975637519    0.5972768548   -1.0651211780
H        1.9310591303   -1.6233277203   -0.7721346647
H       -0.1033693033   -2.5420975557    0.0857254401
H       -2.2035942321    1.0453803785    1.0034746356
H       -0.7491772159    2.6660954254    0.2430159207
C       -1.1477675171   -0.7597310547    0.4787366384
H       -1.9996639708   -1.3364836527    0.8349378922
13   
From optimize.out: Frame 36 / 37, Energy=    -286.9243383249
C        1.5034257173    0.4256102473   -0.6447129529
C        1.1643634563   -0.9055051779   -0.4849171573
C       -0.0585146875   -1.4553104375    0.0413118530
C       -1.2909145474    0.6710548828    0.5416954799
C       -0.3878826480    1.6387273045    0.1460774516
N        0.8577268377    1.5847531890   -0.3831864572
H        2.4955812681    0.5967987922   -1.0682627934
H        1.9190183945   -1.6234007098   -0.7970633715
H       -0.1123109288   -2.5415903839    0.0782713015
H       -2.2326901843    1.0421855550    0.9388982936
H       -0.7301979437    2.6672387110    0.2791917913
C       -1.1407860785   -0.7612644174    0.4932767293
H       -1.9868186557   -1.3392975553    0.8594198320
