13   
From optimize.out: Frame 1 / 3, Energy=    -286.8383083155
C        1.5477255952    0.2440207351   -0.2492566558
C        0.5831869504   -0.9256665191   -0.0963448637
C       -0.7104209497   -0.3606046263   -0.7864160072
C       -1.1188234174    0.1997346509    0.5899274195
C       -0.4427073897    1.0830013274   -0.5527709326
N        0.9655620747    1.3692773527   -0.4535485947
H        2.6184038939    0.1766845043   -0.0637774257
H        0.9616089111   -1.9272756957   -0.3097850380
H       -1.3210858250   -0.8234516527   -1.5561275743
H       -2.0903897486    0.5088980840    0.9634525993
H       -1.0837427485    1.8556698754   -0.9643347462
C       -0.1326904567   -0.6631843765    1.2268954768
H        0.2233731105   -0.7371036596    2.2520863422
13   
From optimize.out: Frame 2 / 3, Energy=    -286.8383134969
C        1.5482631015    0.2439600781   -0.2499162964
C        0.5831613954   -0.9257548257   -0.0945058348
C       -0.7090733236   -0.3596409117   -0.7859874656
C       -1.1198146451    0.1988849191    0.5900884062
C       -0.4422720388    1.0837288812   -0.5510927869
N        0.9666768840    1.3699051016   -0.4517862960
H        2.6206041138    0.1766951608   -0.0731473905
H        0.9604500354   -1.9282857562   -0.3077102016
H       -1.3183502057   -0.8222857861   -1.5565333331
H       -2.0927552132    0.5054232907    0.9613640526
H       -1.0832845491    1.8562957945   -0.9634132650
C       -0.1337518241   -0.6625006690    1.2284612501
H        0.2201462699   -0.7364252773    2.2541791605
