13   
From optimize.out: Frame 1 / 1, Energy=    -286.8549868008
C        1.6972674499    0.2878043459   -0.2177946769
C        1.0901877441   -0.9150443011   -0.1130997488
C       -0.3619637773   -1.0474732349    0.0889831806
C       -1.1404209314    0.3810042155   -0.0222865165
C       -0.2577572752    1.5000476524   -0.4006826261
N        1.0305620919    1.4987760097   -0.4081843795
H        2.7791612696    0.3569904953   -0.2962301170
H        1.6743188469   -1.8289541903   -0.1884936329
H       -0.8372409141   -1.9446421130   -0.3118803428
H       -2.1404458750    0.4184069429   -0.4587273145
H       -0.7545360329    2.4046352209   -0.7599226703
C       -0.9922145815   -0.3754667208    1.2230969943
H       -1.7869180147   -0.7360843224    1.8652218504
13   
From optimize.out: Frame 1 / 2, Energy=    -286.8443461693
C        1.9297441815    0.2991650097   -0.2530683255
C        1.0570459765   -0.7092692137   -0.0889367841
C       -0.2958553305   -0.2035549229   -0.5147918060
C       -1.4200259690   -0.3069116492    0.5008080815
C        0.0681015559    1.2256658026   -0.8792961359
N        1.3188453734    1.4954163840   -0.7405527646
H        2.9969365914    0.3046926158   -0.0635002383
H        1.2569061964   -1.7116176767    0.2669339252
H       -0.6196304014   -0.7134808820   -1.4403409513
H       -2.3946980656    0.0596846148    0.1523797746
H       -0.6448942757    1.9663282926   -1.2358293459
C       -1.3018796140   -0.7742300390    1.7219715860
H       -1.9505962189   -0.9318883358    2.5742229843
