13   
From optimize.out: Frame 1 / 2, Energy=    -286.8443461693
C        1.9297441815    0.2991650097   -0.2530683255
C        1.0570459765   -0.7092692137   -0.0889367841
C       -0.2958553305   -0.2035549229   -0.5147918060
C       -1.4200259690   -0.3069116492    0.5008080815
C        0.0681015559    1.2256658026   -0.8792961359
N        1.3188453734    1.4954163840   -0.7405527646
H        2.9969365914    0.3046926158   -0.0635002383
H        1.2569061964   -1.7116176767    0.2669339252
H       -0.6196304014   -0.7134808820   -1.4403409513
H       -2.3946980656    0.0596846148    0.1523797746
H       -0.6448942757    1.9663282926   -1.2358293459
C       -1.3018796140   -0.7742300390    1.7219715860
H       -1.9505962189   -0.9318883358    2.5742229843
