13   
From qcfsm.out: Frame 62 / 62, Energy=       0.0000000000
C        1.8262650451    0.3384259514   -0.1457453157
C        1.1048074807   -0.8258550581   -0.1442208373
C       -0.2762613671   -0.6093365677   -0.5413637350
C       -1.2947684358    0.1909641266    0.4084480984
C       -0.1325381601    1.1392240757   -0.7438618855
N        1.1005749149    1.4335507050   -0.4735534406
H        2.8953175254    0.4227638847    0.0068801724
H        1.5447020241   -1.8040152671    0.0077866732
H       -0.7952653199   -1.3753189366   -1.1206114733
H       -2.2198576205    0.5071003025   -0.0713820899
H       -0.8459094146    1.9120036941   -1.0359233193
C       -1.1325319656   -0.5072937044    1.5141132177
H       -1.7973099176   -0.8534152571    2.3046663701
