13   
From optimize.out: Frame 42 / 43, Energy=    -286.8383083154
C        1.5477255952    0.2440207351   -0.2492566558
C        0.5831869504   -0.9256665191   -0.0963448637
C       -0.7104209497   -0.3606046263   -0.7864160072
C       -1.1188234174    0.1997346509    0.5899274195
C       -0.4427073897    1.0830013274   -0.5527709326
N        0.9655620747    1.3692773527   -0.4535485947
H        2.6184038939    0.1766845043   -0.0637774257
H        0.9616089111   -1.9272756957   -0.3097850380
H       -1.3210858250   -0.8234516527   -1.5561275743
H       -2.0903897486    0.5088980840    0.9634525993
H       -1.0837427485    1.8556698754   -0.9643347462
C       -0.1326904567   -0.6631843765    1.2268954768
H        0.2233731105   -0.7371036596    2.2520863422
13   
From optimize.out: Frame 40 / 43, Energy=    -286.8383031937
C        1.5378402481    0.2485487480   -0.2533216952
C        0.5832822055   -0.9219231075   -0.1002229478
C       -0.6940321799   -0.3667150583   -0.7711913534
C       -1.0967573557    0.2228219141    0.5966680711
C       -0.4430260246    1.0867773217   -0.5526922488
N        0.9686615215    1.3785433585   -0.4583341063
H        2.5957163102    0.1805104189   -0.0482598755
H        0.9174517282   -1.9329713606   -0.3507318199
H       -1.2709092144   -0.8433533983   -1.5630312654
H       -2.0598110577    0.5210933847    0.9903379309
H       -1.1106070903    1.8333687777   -0.9812376542
C       -0.1238692500   -0.6536697026    1.2290348035
H        0.1960601590   -0.7530312962    2.2629821611
13   
From optimize.out: Frame 37 / 43, Energy=    -286.8382922376
C        1.5464118834    0.2547832868   -0.2558030302
C        0.5917632157   -0.9175189736   -0.1007072318
C       -0.6907332542   -0.3586533909   -0.7837933733
C       -1.0858447687    0.2603652444    0.6006294127
C       -0.4465702340    1.0884634002   -0.5506338717
N        0.9773487293    1.3829789522   -0.4684879064
H        2.6109157888    0.1890106451   -0.0559269879
H        0.9609517037   -1.9230348532   -0.3203015678
H       -1.3269250822   -0.8619867127   -1.4998011553
H       -2.0718380281    0.5123491304    0.9707536161
H       -1.0957348773    1.8445369043   -0.9900039408
C       -0.1362403949   -0.6636096467    1.2103838334
H        0.1664953184   -0.8076839863    2.2436922032
13   
From optimize.out: Frame 35 / 43, Energy=    -286.8382818476
C        1.5567589673    0.2680804493   -0.2561747090
C        0.6084464845   -0.9071893475   -0.0957283529
C       -0.6808870462   -0.3608625369   -0.7964029181
C       -1.0703277975    0.3071810463    0.6197447071
C       -0.4491185430    1.0804525966   -0.5533187434
N        0.9855283986    1.3925648911   -0.4795582142
H        2.6304247401    0.2062872422   -0.0813608320
H        1.0044023146   -1.9083168488   -0.2800654357
H       -1.3749905490   -0.8754938171   -1.4505891378
H       -2.0731555220    0.5326660590    0.9688945295
H       -1.0895369502    1.8344539233   -1.0027966637
C       -0.1657763851   -0.6862744757    1.1877990198
H        0.1182318880   -0.8835491817    2.2195567503
13   
From optimize.out: Frame 33 / 43, Energy=    -286.8382555909
C        1.5614886683    0.2860957557   -0.2533868011
C        0.6315251190   -0.8971337771   -0.0841329560
C       -0.6540455646   -0.3780614241   -0.7943078164
C       -1.0468543163    0.3540591706    0.6532594690
C       -0.4543233303    1.0660178160   -0.5602731480
N        0.9823289056    1.4039012135   -0.4865802665
H        2.6425918334    0.2282779110   -0.1320991998
H        1.0275966393   -1.9017648634   -0.2436776928
H       -1.3660312517   -0.8759795078   -1.4419590163
H       -2.0477173397    0.5993829550    0.9965844431
H       -1.1148790639    1.7987272552   -1.0160714949
C       -0.2141208180   -0.7202435074    1.1664985704
H        0.0524405189   -0.9632789971    2.1961459093
13   
From optimize.out: Frame 31 / 43, Energy=    -286.8382069164
C        1.5672582846    0.3045880424   -0.2500570637
C        0.6579624506   -0.8875813174   -0.0707376531
C       -0.6278388744   -0.3983759072   -0.7751173781
C       -1.0254446017    0.3911064107    0.6825757500
C       -0.4554259892    1.0514819827   -0.5689547089
N        0.9750107543    1.4138290821   -0.4914137591
H        2.6537158231    0.2526557542   -0.1909866924
H        1.0497417318   -1.8956186492   -0.2113346276
H       -1.3560878643   -0.8657692270   -1.4280824037
H       -2.0234580001    0.6679250613    1.0120116191
H       -1.1377074223    1.7612321469   -1.0289698964
C       -0.2633833485   -0.7531823723    1.1475776696
H       -0.0143429439   -1.0422910072    2.1734891444
13   
From optimize.out: Frame 28 / 43, Energy=    -286.8380043374
C        1.5751951812    0.3234315763   -0.2470903124
C        0.6876043402   -0.8774868584   -0.0583844862
C       -0.6010271061   -0.4204423024   -0.7405978072
C       -1.0093182075    0.4210064889    0.7100806011
C       -0.4516319155    1.0359714960   -0.5803614507
N        0.9624582199    1.4215124440   -0.4934995861
H        2.6634559789    0.2796052893   -0.2537441792
H        1.0702287723   -1.8886404391   -0.1908725801
H       -1.3460648402   -0.8493745212   -1.4020122842
H       -2.0039894097    0.7361132688    1.0156869067
H       -1.1531122700    1.7231806624   -1.0450911331
C       -0.3126725795   -0.7833832522    1.1335726045
H       -0.0811261639   -1.1214938524    2.1523137068
13   
From optimize.out: Frame 26 / 43, Energy=    -286.8375016851
C        1.5875270615    0.3428345608   -0.2454972293
C        0.7198842480   -0.8658220722   -0.0485234770
C       -0.5726682423   -0.4430610485   -0.6980853717
C       -1.0006448489    0.4450711350    0.7408936524
C       -0.4442904899    1.0196076238   -0.5965569315
N        0.9426927691    1.4251723209   -0.4941770414
H        2.6730475658    0.3060684513   -0.3173495292
H        1.0893698908   -1.8795643914   -0.1862742194
H       -1.3338135798   -0.8296030621   -1.3674689838
H       -1.9902495444    0.8003143236    1.0180589880
H       -1.1588503092    1.6867040787   -1.0682585016
C       -0.3621739590   -0.8087830242    1.1283695501
H       -0.1498305618   -1.1989388955    2.1348690945
13   
From optimize.out: Frame 16 / 43, Energy=    -286.8356979632
C        1.6035564959    0.3642471228   -0.2442404317
C        0.7520422780   -0.8522681988   -0.0381158648
C       -0.5441415844   -0.4639586706   -0.6579387157
C       -0.9926191499    0.4601860087    0.7744435476
C       -0.4360730463    1.0028303232   -0.6203897068
N        0.9156239391    1.4268362684   -0.4948161029
H        2.6817105812    0.3281900527   -0.3833676964
H        1.1070016633   -1.8679838153   -0.1885897397
H       -1.3199568105   -0.8018670284   -1.3359417470
H       -1.9735980066    0.8568665717    1.0265119595
H       -1.1597514792    1.6520513723   -1.0991587494
C       -0.4113668766   -0.8322594947    1.1344887308
H       -0.2224280041   -1.2728705119    2.1271145165
13   
From optimize.out: Frame 14 / 43, Energy=    -286.8295200433
C        1.6205455300    0.3897901276   -0.2427158922
C        0.7798529534   -0.8375883071   -0.0235520686
C       -0.5161385176   -0.4793656339   -0.6244830487
C       -0.9809753419    0.4619282369    0.8036497583
C       -0.4272203464    0.9866412172   -0.6526420776
N        0.8806686155    1.4305983556   -0.4933751978
H        2.6852011689    0.3434397198   -0.4566557446
H        1.1181634731   -1.8547666957   -0.1925208024
H       -1.3043686124   -0.7604662896   -1.3110563424
H       -1.9502199768    0.9008438522    1.0347287515
H       -1.1570549758    1.6198010006   -1.1387186683
C       -0.4550799069   -0.8584708450    1.1562073020
H       -0.2933740632   -1.3423847386    2.1411340307
13   
From optimize.out: Frame 11 / 43, Energy=    -286.8109168564
C        1.6412788215    0.4215290186   -0.2400433537
C        0.7988753390   -0.8206132614   -0.0026067406
C       -0.4875488961   -0.4856680965   -0.5970473082
C       -0.9695589241    0.4592496618    0.8212967916
C       -0.4207586139    0.9752372830   -0.6886696741
N        0.8324609531    1.4419607070   -0.4916216616
H        2.6840453725    0.3414942814   -0.5321928414
H        1.1144479014   -1.8387080531   -0.1952555036
H       -1.2824262785   -0.7113689806   -1.2873971495
H       -1.9303751964    0.9302802642    1.0319034832
H       -1.1521888771    1.5912037289   -1.1878968941
C       -0.4837185725   -0.8889168976    1.1891108286
H       -0.3445330290   -1.4156796556    2.1804200236
13   
From optimize.out: Frame 9 / 43, Energy=    -286.7908775422
C        1.6691151558    0.4536789448   -0.2381086589
C        0.8109203659   -0.8055298755    0.0195566890
C       -0.4597954661   -0.4863526383   -0.5741288148
C       -0.9617632365    0.4682472377    0.8267013127
C       -0.4222481861    0.9700301290   -0.7215099172
N        0.7693496772    1.4594988907   -0.4977025704
H        2.6890775021    0.3283322218   -0.5925584383
H        1.0989437677   -1.8235388069   -0.1936755503
H       -1.2550702401   -0.6668815802   -1.2619938140
H       -1.9197590686    0.9608904170    1.0157596287
H       -1.1531027690    1.5660280988   -1.2365645180
C       -0.4970331275   -0.9215113073    1.2201022123
H       -0.3686343748   -1.5028917316    2.2341224393
13   
From optimize.out: Frame 7 / 43, Energy=    -286.7654518692
C        1.6935610597    0.4767757445   -0.2456162597
C        0.8236917310   -0.7971387570    0.0317315472
C       -0.4473438790   -0.4781094999   -0.5495839666
C       -0.9566157202    0.4929218115    0.8278012798
C       -0.4248308178    0.9575882092   -0.7327878968
N        0.7261255713    1.4557224586   -0.5152605727
H        2.7037301354    0.3250080407   -0.6333263105
H        1.0873023457   -1.8243513917   -0.1694596648
H       -1.2097209149   -0.6324235237   -1.2549409648
H       -1.9143019752    0.9931353878    1.0108925666
H       -1.1744641571    1.5331754395   -1.2425112872
C       -0.5124105296   -0.9330681779    1.2358532283
H       -0.3947228492   -1.5692357418    2.2372083012
13   
From optimize.out: Frame 4 / 43, Energy=    -286.7165093425
C        1.7227734790    0.4882486309   -0.2695584399
C        0.8404285825   -0.7956870828    0.0218046892
C       -0.4667323957   -0.4575319156   -0.5180374035
C       -0.9623442253    0.5243763216    0.8387511312
C       -0.4150970989    0.9421767804   -0.7148842682
N        0.7532323400    1.4449928626   -0.5381583414
H        2.7388381123    0.3338699900   -0.6516886008
H        1.0926727924   -1.8526414621   -0.1181420009
H       -1.1661691382   -0.6430157911   -1.2863235258
H       -1.9190041153    1.0088666456    1.0421217653
H       -1.2241045229    1.5000990846   -1.1911056260
C       -0.5454371001   -0.9118760569    1.2372337058
H       -0.4490567097   -1.5818780072    2.1479869147
13   
From optimize.out: Frame 2 / 43, Energy=    -286.6597824050
C        1.7473753587    0.4931000358   -0.2928441117
C        0.8545636542   -0.7983051842    0.0093572559
C       -0.4878096285   -0.4347204291   -0.4910361565
C       -0.9662883450    0.5544771727    0.8534924654
C       -0.4073372727    0.9328133240   -0.6915730168
N        0.7911889976    1.4352172084   -0.5575945399
H        2.7721530670    0.3495580915   -0.6589633723
H        1.1014160695   -1.8761558117   -0.0742148281
H       -1.1390924224   -0.6821395011   -1.3205207985
H       -1.9202875439    1.0211910935    1.0758192021
H       -1.2631650561    1.4774780064   -1.1358659617
C       -0.5765586264   -0.8893710605    1.2356821682
H       -0.5061582521   -1.5831429456    2.0482616939
13   
C6H6N->C6H6N atoms 1-13 frame 243 charge -0.000 sz -1.000 sz^2 0.542
C        1.7676692726    0.4930219986   -0.3179524785
C        0.8666121902   -0.8037657973   -0.0063486918
C       -0.5102718843   -0.4126907674   -0.4684289817
C       -0.9690280602    0.5844583722    0.8708712306
C       -0.4020904418    0.9295583165   -0.6650312390
N        0.8364567696    1.4258478640   -0.5777584932
H        2.8034262740    0.3724228161   -0.6592687580
H        1.1119086447   -1.8910831439   -0.0372878589
H       -1.1217299217   -0.7425856219   -1.3495183817
H       -1.9218705211    1.0319193452    1.1094012623
H       -1.2886565126    1.4617090892   -1.0789696682
C       -0.6062126370   -0.8630451612    1.2292208627
H       -0.5662131723   -1.5857673100    1.9510711954
13   
C6H6N->C6H6N atoms 1-13 frame 245 charge +0.000 sz -1.000 sz^2 0.623
C        1.7836797340    0.4891461192   -0.3475763959
C        0.8770121356   -0.8109568367   -0.0261936210
C       -0.5342031048   -0.3942008474   -0.4506595043
C       -0.9709532414    0.6157917212    0.8898795385
C       -0.3996886345    0.9328210273   -0.6368648049
N        0.8866265623    1.4165871335   -0.6027338867
H        2.8327555742    0.4033945281   -0.6554544753
H        1.1242478291   -1.8951977133   -0.0071082413
H       -1.1085864200   -0.8188258573   -1.3644197761
H       -1.9266772457    1.0430204251    1.1410360697
H       -1.2991469157    1.4514452321   -1.0238642542
C       -0.6343298496   -0.8297979332    1.2159893086
H       -0.6307364235   -1.6032269985    1.8679700428
13   
C6H6N->C6H6N atoms 1-13 frame 248 charge -0.000 sz -1.000 sz^2 0.635
C        1.7950518733    0.4819246185   -0.3817007092
C        0.8859246726   -0.8190271764   -0.0495347186
C       -0.5584005100   -0.3830940340   -0.4382624502
C       -0.9721404550    0.6477296284    0.9099323546
C       -0.4000949876    0.9423095724   -0.6082950960
N        0.9375257015    1.4075045767   -0.6335222881
H        2.8590401196    0.4413583568   -0.6488206933
H        1.1391167308   -1.8889526650    0.0153844551
H       -1.0962950785   -0.9020057999   -1.3575787017
H       -1.9359295553    1.0548943446    1.1692578037
H       -1.2948780321    1.4476224963   -0.9762083498
C       -0.6591773824   -0.7902895438    1.1961442498
H       -0.6997430971   -1.6399743746    1.8032041436
13   
C6H6N->C6H6N atoms 1-13 frame 250 charge +0.000 sz -1.000 sz^2 0.619
C        1.8023259883    0.4709632896   -0.4176868227
C        0.8936162708   -0.8280135986   -0.0749786121
C       -0.5814039217   -0.3823990949   -0.4306561942
C       -0.9726876631    0.6778072326    0.9319818327
C       -0.4025548983    0.9562477746   -0.5784649311
N        0.9855064347    1.3986332475   -0.6674239978
H        2.8811747724    0.4830872687   -0.6385858289
H        1.1572603377   -1.8772548318    0.0294528107
H       -1.0828986207   -0.9828240353   -1.3276795943
H       -1.9485985883    1.0658225645    1.1951086693
H       -1.2796758550    1.4524465302   -0.9396072660
C       -0.6796500194   -0.7496333811    1.1715345932
H       -0.7724142374   -1.6848829661    1.7470053414
13   
C6H6N->C6H6N atoms 1-13 frame 252 charge -0.000 sz -1.000 sz^2 0.614
C        1.8067838331    0.4554424359   -0.4529776267
C        0.9005504947   -0.8383302929   -0.1019451631
C       -0.6024887514   -0.3933581876   -0.4268854142
C       -0.9728727264    0.7039878636    0.9578917779
C       -0.4061599636    0.9724773035   -0.5450437338
N        1.0292049967    1.3902145375   -0.7012321532
H        2.8985094137    0.5253910461   -0.6227630820
H        1.1795388067   -1.8665990966    0.0351794358
H       -1.0673976832   -1.0560121155   -1.2784757186
H       -1.9625944475    1.0737656289    1.2213644408
H       -1.2590307191    1.4687003287   -0.9150938812
C       -0.6963081865   -0.7128909414    1.1433650612
H       -0.8477350673   -1.7227885102    1.6866160572
13   
C6H6N->C6H6N atoms 1-13 frame 255 charge +0.000 sz -1.000 sz^2 0.625
C        1.8096370062    0.4350843298   -0.4854749062
C        0.9072086449   -0.8498228983   -0.1301550038
C       -0.6209173065   -0.4157134555   -0.4264576416
C       -0.9730780571    0.7247351159    0.9887787439
C       -0.4102751022    0.9889303884   -0.5064814809
N        1.0676770724    1.3831927252   -0.7323536918
H        2.9100393639    0.5648801277   -0.5998046878
H        1.2064727867   -1.8621981668    0.0331694835
H       -1.0502046811   -1.1188013333   -1.2164656487
H       -1.9756978118    1.0773952135    1.2502351037
H       -1.2377581568    1.4984920176   -0.9030961172
C       -0.7101255741   -0.6835089395    1.1123431398
H       -0.9229781844   -1.7426651248    1.6157627070
13   
C6H6N->C6H6N atoms 1-13 frame 257 charge -0.000 sz -1.000 sz^2 0.652
C        1.8117442303    0.4107445843   -0.5136166459
C        0.9140547587   -0.8616392706   -0.1591469115
C       -0.6357901220   -0.4474772847   -0.4290343599
C       -0.9737524042    0.7391861350    1.0245068068
C       -0.4147718207    1.0039337650   -0.4628181752
N        1.0999734753    1.3789845345   -0.7589369625
H        2.9147409000    0.5980891148   -0.5695631850
H        1.2377320113   -1.8659145564    0.0246166830
H       -1.0337405073   -1.1713413286   -1.1508038024
H       -1.9861889859    1.0763952891    1.2827655341
H       -1.2177488867    1.5410663602   -0.9021497409
C       -0.7220280405   -0.6630710116    1.0793390498
H       -0.9942246082   -1.7389563311    1.5348417097
13   
C6H6N->C6H6N atoms 1-13 frame 259 charge +0.000 sz -1.000 sz^2 0.714
C        1.8135467949    0.3840617420   -0.5368817673
C        0.9215902882   -0.8726687314   -0.1885632312
C       -0.6463587151   -0.4855718608   -0.4341404259
C       -0.9752961118    0.7475533970    1.0643505141
C       -0.4200495521    1.0168647103   -0.4149958307
N        1.1259135131    1.3789017955   -0.7802185562
H        2.9123171350    0.6225468767   -0.5329990016
H        1.2723428993   -1.8755473304    0.0108673069
H       -1.0221652932   -1.2183161640   -1.0918844814
H       -1.9933151895    1.0715723609    1.3195059453
H       -1.1969348869    1.5926499279   -0.9079110623
C       -0.7329529641   -0.6510407012    1.0450733889
H       -1.0586379176   -1.7110060226    1.4477972014
13   
C6H6N->C6H6N atoms 1-13 frame 261 charge -0.000 sz -1.000 sz^2 0.803
C        1.8151947780    0.3568790694   -0.5556075767
C        0.9304263300   -0.8818157173   -0.2182990469
C       -0.6518898310   -0.5268762519   -0.4413412165
C       -0.9779171991    0.7508194520    1.1074888914
C       -0.4266619253    1.0281587074   -0.3642195446
N        1.1460781471    1.3839199330   -0.7963303220
H        2.9032741119    0.6367985126   -0.4915492008
H        1.3092056535   -1.8864225469   -0.0070272518
H       -1.0203209612   -1.2675090814   -1.0493922090
H       -1.9970592891    1.0646040026    1.3610438941
H       -1.1713228082    1.6483424725   -0.9146631135
C       -0.7437036024   -0.6454180595    1.0098871137
H       -1.1153034044   -1.6614804925    1.3600095826
13   
C6H6N->C6H6N atoms 1-13 frame 264 charge -0.000 sz -1.000 sz^2 0.944
C        1.8166442711    0.3311277325   -0.5707295694
C        0.9413252698   -0.8879905111   -0.2482892330
C       -0.6514636376   -0.5688337618   -0.4505700770
C       -0.9816284723    0.7503698219    1.1525392807
C       -0.4350858296    1.0386980005   -0.3123961232
N        1.1611245659    1.3945954052   -0.8083201135
H        2.8887294921    0.6399505714   -0.4474729214
H        1.3473916495   -1.8931607229   -0.0279563982
H       -1.0317976483   -1.3254903734   -1.0298010531
H       -1.9977957551    1.0578121746    1.4076750626
H       -1.1377333662    1.7029988127   -0.9174588855
C       -0.7546839436   -0.6433586153    0.9740311125
H       -1.1650265958   -1.5967185343    1.2787489186
13   
C6H6N->C6H6N atoms 1-13 frame 266 charge +0.000 sz -1.000 sz^2 1.012
C        1.8176131781    0.3085202663   -0.5842079851
C        0.9553758692   -0.8901952742   -0.2787475585
C       -0.6440056217   -0.6105249638   -0.4623839695
C       -0.9863373669    0.7480181688    1.1974456211
C       -0.4459604631    1.0494044820   -0.2622472819
N        1.1712885606    1.4110446121   -0.8190061446
H        2.8701141318    0.6317625929   -0.4041933351
H        1.3868979504   -1.8906888687   -0.0503668656
H       -1.0565549581   -1.3938406853   -1.0329551798
H       -1.9961038141    1.0540902478    1.4595563442
H       -1.0949896796    1.7516135133   -0.9137415821
C       -0.7658012462   -0.6412716028    0.9376162647
H       -1.2115365403   -1.5279324882    1.2132316721
13   
C6H6N->C6H6N atoms 1-13 frame 268 charge +0.000 sz -1.000 sz^2 1.064
C        1.8174879819    0.2904818429   -0.5991376342
C        0.9741072526   -0.8874680651   -0.3104469447
C       -0.6280389226   -0.6529699768   -0.4779362568
C       -0.9918458073    0.7459719422    1.2396021356
C       -0.4603545511    1.0612013280   -0.2172112447
N        1.1759230474    1.4332125025   -0.8332737670
H        2.8491098375    0.6122968342   -0.3663374147
H        1.4289693588   -1.8744689010   -0.0723833531
H       -1.0903466209   -1.4687714686   -1.0522093385
H       -1.9922853504    1.0570154630    1.5174161321
H       -1.0438673295    1.7893094845   -0.9033747944
C       -0.7765735746   -0.6351317256    0.9007197426
H       -1.2622853218   -1.4706792602    1.1745727378
13   
C6H6N->C6H6N atoms 1-13 frame 271 charge +0.000 sz -1.000 sz^2 1.139
C        1.7733359899    0.2952562232   -0.5860298072
C        0.9653347898   -0.8811293836   -0.3214503115
C       -0.5986271763   -0.6402699768   -0.4924892493
C       -0.9545337097    0.7444223241    1.2062191166
C       -0.4727021595    1.0558057073   -0.2547934211
N        1.1199383301    1.4317394242   -0.8188924217
H        2.8116972998    0.5780313885   -0.3527969171
H        1.4122251318   -1.8651354502   -0.0967635578
H       -1.0685436553   -1.4366687478   -1.0835701391
H       -1.9383336350    1.0691627472    1.5267636020
H       -1.0581201142    1.7659068632   -0.9211283066
C       -0.7543701423   -0.6370523575    0.9179107617
H       -1.2373009491   -1.4800687618    1.2770206513
13   
From optimize.out: Frame 1 / 21, Energy=    -286.6753260616
C        1.7283406089    0.3007277306   -0.5652989642
C        0.9561558386   -0.8767214502   -0.3321102977
C       -0.5673120224   -0.6245465541   -0.5035833550
C       -0.9163274162    0.7426553462    1.1694370687
C       -0.4796098834    1.0395833152   -0.2934910362
N        1.0489304451    1.4217809571   -0.7866901688
H        2.7733003314    0.5429119345   -0.3342818296
H        1.3940266581   -1.8606860101   -0.1262222844
H       -1.0506832658   -1.3935337445   -1.1145400619
H       -1.8796829321    1.0842749715    1.5337345748
H       -1.0736185338    1.7304975583   -0.9385401126
C       -0.7313796477   -0.6338066240    0.9316947535
H       -1.2021401806   -1.4731374304    1.3598917134
13   
From optimize.out: Frame 3 / 21, Energy=    -286.7601272681
C        1.6951191242    0.3111190497   -0.5429354957
C        0.9580731581   -0.8791805412   -0.3503239230
C       -0.5377104026   -0.6170615465   -0.5110812015
C       -0.8861971177    0.7401313903    1.1354308190
C       -0.4804528304    1.0155377323   -0.3329337366
N        0.9774694320    1.4104695631   -0.7407983630
H        2.7471863466    0.5188054952   -0.3281869128
H        1.3913610362   -1.8643555394   -0.1711619633
H       -1.0428325155   -1.3512818176   -1.1438065572
H       -1.8151197073    1.1154152816    1.5526162949
H       -1.0902896752    1.6908921194   -0.9587989973
C       -0.7292203922   -0.6322845604    0.9473009420
H       -1.1873864560   -1.4582066265    1.4446790946
13   
From optimize.out: Frame 5 / 21, Energy=    -286.8069980554
C        1.6819580558    0.3211658511   -0.5309164416
C        0.9784238238   -0.8848640248   -0.3820446128
C       -0.5069005038   -0.6197323816   -0.5082136351
C       -0.8788263819    0.7356552297    1.1126087931
C       -0.4802009320    0.9868658050   -0.3607276720
N        0.9280433781    1.4011342299   -0.6906188859
H        2.7425046335    0.4993482910   -0.3482873722
H        1.4148421330   -1.8699371135   -0.2373220508
H       -1.0337353558   -1.3183183397   -1.1614764791
H       -1.7589019510    1.1614693472    1.5846084877
H       -1.1102980354    1.6459738242   -0.9711385583
C       -0.7616991326   -0.6278127224    0.9672237891
H       -1.2152097318   -1.4309479961    1.5263046380
13   
From optimize.out: Frame 8 / 21, Energy=    -286.8464497014
C        1.6828363147    0.3278043451   -0.5310485166
C        1.0081882922   -0.8903799853   -0.4195073585
C       -0.4751483478   -0.6284040784   -0.4932469394
C       -0.8907607841    0.7301370188    1.1023711210
C       -0.4792149624    0.9588413860   -0.3717722758
N        0.9034840752    1.3963960236   -0.6471379806
H        2.7512659156    0.4848733976   -0.3898237538
H        1.4535453283   -1.8736077408   -0.3111766113
H       -1.0193198285   -1.2967054326   -1.1631264990
H       -1.7189375025    1.2098650619    1.6171654347
H       -1.1264931875    1.6013217221   -0.9744240636
C       -0.8144996191   -0.6210565732    0.9894765338
H       -1.2749456940   -1.3990851449    1.5922509090
13   
From optimize.out: Frame 10 / 21, Energy=    -286.8617412617
C        1.6871647758    0.3355338811   -0.5295243964
C        1.0350478762   -0.8953172931   -0.4503024478
C       -0.4455648257   -0.6439644672   -0.4700628097
C       -0.9149118128    0.7262892492    1.0948489755
C       -0.4766201925    0.9320399416   -0.3735334607
N        0.8937538888    1.3995306184   -0.5988717721
H        2.7622793956    0.4804250091   -0.4428133437
H        1.4949453534   -1.8740587960   -0.3799567671
H       -1.0066358797   -1.2828922255   -1.1556074207
H       -1.6788346376    1.2713950609    1.6435610647
H       -1.1406862409    1.5496417198   -0.9813618126
C       -0.8723026080   -0.6191340015    1.0072177290
H       -1.3376350927   -1.3794886969    1.6364064615
13   
From optimize.out: Frame 12 / 21, Energy=    -286.8708357541
C        1.6900953189    0.3441782952   -0.5222914680
C        1.0556144902   -0.8997925519   -0.4721040718
C       -0.4212143574   -0.6634340279   -0.4429989301
C       -0.9516602110    0.7215921465    1.0823505900
C       -0.4744377871    0.9073995624   -0.3723267440
N        0.8882119981    1.4038037520   -0.5429728580
H        2.7687432718    0.4863196060   -0.4922861695
H        1.5350159144   -1.8708125307   -0.4380358478
H       -0.9997366551   -1.2685125320   -1.1473972944
H       -1.6236168109    1.3453556977    1.6673323533
H       -1.1530866256    1.4895153637   -0.9997169318
C       -0.9310588249   -0.6199385295    1.0169473474
H       -1.3828697215   -1.3756742515    1.6635000246
13   
From optimize.out: Frame 14 / 21, Energy=    -286.8749847038
C        1.6880995736    0.3523753815   -0.5086449839
C        1.0658807703   -0.9027104435   -0.4840485741
C       -0.4094095769   -0.6838136827   -0.4169985601
C       -1.0077764204    0.7174713731    1.0605593553
C       -0.4770878912    0.8890759837   -0.3707597540
N        0.8809119965    1.4067745679   -0.4840646739
H        2.7666457664    0.5007035670   -0.5207996867
H        1.5664312940   -1.8639702267   -0.4796854993
H       -0.9971234637   -1.2533934106   -1.1463429844
H       -1.5431005365    1.4173714725    1.6963002760
H       -1.1556733471    1.4290980662   -1.0378781339
C       -0.9896396099   -0.6206703544    1.0144057743
H       -1.3881585550   -1.3883122939    1.6779574448
13   
From optimize.out: Frame 18 / 21, Energy=    -286.8754023048
C        1.6798992453    0.3576068280   -0.4896409690
C        1.0624027081   -0.9029622646   -0.4885914546
C       -0.4139725972   -0.6967538372   -0.4055173943
C       -1.0743773258    0.7179663076    1.0310352780
C       -0.4879730090    0.8812457263   -0.3734526236
N        0.8703764409    1.4091636706   -0.4326815729
H        2.7575395222    0.5142543114   -0.5120032348
H        1.5761839389   -1.8579397298   -0.5024646050
H       -0.9994136859   -1.2403947367   -1.1587626510
H       -1.4457958849    1.4501899530    1.7407036528
H       -1.1411409853    1.3857058668   -1.0955347914
C       -1.0375740783   -0.6186495866    0.9984245098
H       -1.3461542891   -1.3994325087    1.6884858563
13   
From optimize.out: Frame 20 / 21, Energy=    -286.8754496250
C        1.6735000166    0.3587863601   -0.4781759604
C        1.0562543561   -0.9021594529   -0.4898471847
C       -0.4209526040   -0.6978737049   -0.4124752053
C       -1.0943234380    0.7175745219    1.0190393938
C       -0.4966139934    0.8810209707   -0.3785878236
N        0.8626322681    1.4103482637   -0.4169895676
H        2.7510503826    0.5171868986   -0.4912018976
H        1.5701101273   -1.8571569663   -0.5079844591
H       -1.0045977010   -1.2411191742   -1.1673871682
H       -1.4021509037    1.4514269838    1.7577571094
H       -1.1333373380    1.3803184550   -1.1194073427
C       -1.0445534415   -0.6187088584    0.9901890645
H       -1.3170177311   -1.3996442970    1.6950710414
