13   
From optimize.out: Frame 1 / 3, Energy=    -286.9243503777
C        1.6117947890    0.3951288982   -0.3219744438
C        1.1658487250   -0.9028264038   -0.4862013915
C       -0.1592441427   -1.4237785371   -0.2667444033
C       -1.2527373419   -0.7279940576    0.1545735571
C       -0.2972880285    1.6090109158    0.4239104064
N        1.0092201208    1.5397803915    0.0762403830
H        2.6676951982    0.5494189770   -0.5551983310
H        1.9124451033   -1.6172534254   -0.8246965066
H       -0.2897925328   -2.4859526468   -0.4636334172
H       -2.1838017065   -1.2804957780    0.2642569394
H       -0.5869469627    2.6185050590    0.7241326668
C       -1.3152036972    0.6754147901    0.4743652031
H       -2.2819895240    1.0510418169    0.8009693376
13   
From optimize.out: Frame 2 / 3, Energy=    -286.9243532468
C        1.6123127163    0.3945678276   -0.3197844547
C        1.1658715353   -0.9030464722   -0.4863094386
C       -0.1596295929   -1.4234860202   -0.2679482604
C       -1.2528126042   -0.7280512519    0.1549700816
C       -0.2971559494    1.6091662941    0.4250185097
N        1.0096956127    1.5392232123    0.0787046479
H        2.6677946650    0.5491056606   -0.5544952302
H        1.9121275019   -1.6169291690   -0.8268326400
H       -0.2900444287   -2.4855485140   -0.4656158366
H       -2.1830965248   -1.2814875013    0.2667334084
H       -0.5880183530    2.6201793177    0.7189740017
C       -1.3149222727    0.6752293890    0.4757922705
H       -2.2821223054    1.0510772271    0.8007929407
