13   
From optimize.out: Frame 2 / 3, Energy=    -286.8549693703
C        1.6724632058    0.3311160337   -0.3250581421
C        1.0799246500   -0.8827735733   -0.3043633466
C       -0.3513940272   -1.0536564506   -0.0024302983
C       -1.1382218189    0.3660142204    0.1145343891
C       -0.2937296476    1.5327570016   -0.2046341556
N        0.9889836982    1.5484623459   -0.3224042151
H        2.7439088975    0.4214526934   -0.4842405892
H        1.6596517633   -1.7760802000   -0.5235045788
H       -0.8555977654   -1.9047507362   -0.4640319070
H       -2.1712900106    0.4414158576   -0.2307127162
H       -0.8220975223    2.4664347263   -0.4127188969
C       -0.8868972542   -0.5249655330    1.2503662136
H       -1.6257041688   -0.9654263854    1.9091982433
13   
From optimize.out: Frame 1 / 2, Energy=    -286.8505605013
C        0.6794932035    0.0144240190    0.2321469517
C        0.9304567703   -1.2724682887   -0.5330090826
C        0.1911154346   -2.3546395192   -0.4683022134
C       -1.2572294994    1.2143311063    0.5405674660
C       -0.3786992246    1.8184713748   -0.4713333856
N        0.7164711862    1.1710855053   -0.6827314752
H        1.5162539795    0.1560052870    0.9385112812
H        1.8165232724   -1.2402044904   -1.1777485029
H        0.1992773583   -3.3452882561   -0.9050278366
H       -2.2180095764    1.6040645940    0.8573073022
H       -0.5987792004    2.7359365341   -1.0161797555
C       -0.6297044689    0.1053717032    0.9713323152
H       -0.9671692353   -0.6070895693    1.7144669356
