13   
From optimize.out: Frame 1 / 2, Energy=    -286.8383360532
C        1.2467903328    0.2391493530    0.2452889900
C        0.5671291017   -1.1296078278   -0.2130786642
C       -0.7462328251   -0.8837993413   -0.7938688356
C       -1.0526486561    0.2204303567    0.2141082371
C       -0.4347294886    1.4776613843   -0.3838562609
N        0.8482391741    1.4593432948   -0.4109522628
H        2.2856112669    0.1481923634    0.5460922891
H        1.2042191783   -2.0016887613   -0.3225968500
H       -1.1575096410   -1.0762076433   -1.7821280533
H       -2.0596013823    0.2974853457    0.6304837076
H       -1.0062005099    2.2666915076   -0.8701299983
C        0.1476016803   -0.3534424927    1.0501550238
H        0.1573317683   -0.6642075387    2.0904826776
13   
From optimize.out: Frame 32 / 33, Energy=    -286.8383360531
C        1.2525209873    0.2447201475    0.2520616282
C        0.5850754960   -1.1039373587   -0.2370784800
C       -0.7318647611   -0.8562125042   -0.8161094475
C       -1.0509566754    0.2304015649    0.2103679038
C       -0.4216918492    1.4961830290   -0.3724257121
N        0.8609044031    1.4720310781   -0.3949105072
H        2.2848590728    0.1604237710    0.5760694379
H        1.2079427074   -1.9873410034   -0.3393348504
H       -1.2250852283   -1.1795911370   -1.7233797433
H       -2.0641510702    0.3046559627    0.6100055883
H       -0.9860893202    2.2786780122   -0.8761017555
C        0.1404402032   -0.3575504453    1.0410139979
H        0.1480960348   -0.7024611169    2.0698219398
13   
From optimize.out: Frame 30 / 33, Energy=    -286.8383108368
C        1.2534888828    0.2458550794    0.2717029534
C        0.5893165904   -1.0795904420   -0.2405635889
C       -0.7128115000   -0.7868012497   -0.8325189987
C       -1.0441247801    0.2276035812    0.2420920947
C       -0.4192501760    1.4764386249   -0.3952156490
N        0.8567536249    1.4765577942   -0.3746364458
H        2.2794036952    0.1616996214    0.6151554403
H        1.1830530486   -1.9804616226   -0.3817780111
H       -1.2407626203   -1.1694720296   -1.6949624987
H       -2.0614519049    0.3233968955    0.6208489504
H       -0.9977390901    2.2113964601   -0.9499672140
C        0.1381663277   -0.3769578936    1.0495074322
H        0.1759579018   -0.7296648192    2.0703355351
13   
From optimize.out: Frame 25 / 33, Energy=    -286.8374456494
C        1.2546780354    0.2451007108    0.2811250326
C        0.5899745500   -1.0655684489   -0.2340651440
C       -0.7000409433   -0.7195397677   -0.8367890209
C       -1.0488397482    0.2178590735    0.2819888395
C       -0.4179799223    1.4223514255   -0.4344231817
N        0.8430714443    1.4627361201   -0.3747871179
H        2.2784024485    0.1714750308    0.6329829320
H        1.1626631641   -1.9761745220   -0.4032061555
H       -1.2219012316   -1.0845230978   -1.7095569564
H       -2.0589218514    0.3373209599    0.6678507205
H       -1.0068199320    2.1248172528   -1.0170643312
C        0.1383901059   -0.3925949071    1.0639881155
H        0.1873238807   -0.7432598299    2.0819562674
13   
From optimize.out: Frame 22 / 33, Energy=    -286.8328680989
C        1.2694626631    0.2432336470    0.2899458901
C        0.5949025606   -1.0552394710   -0.2259162887
C       -0.6931750056   -0.6570588859   -0.8517667878
C       -1.0644177236    0.2105348585    0.3167437306
C       -0.4268562977    1.3566566423   -0.4743934899
N        0.8545159989    1.4482959067   -0.3770451014
H        2.2913242254    0.1774364160    0.6485896933
H        1.1514261837   -1.9680304233   -0.4125221184
H       -1.2225051339   -0.9887427022   -1.7352475672
H       -2.0698274300    0.3372944224    0.7138645601
H       -1.0209711668    2.0414552038   -1.0740904552
C        0.1417267647   -0.3986833918    1.0788077412
H        0.1943943612   -0.7471522224    2.1030301932
13   
From optimize.out: Frame 20 / 33, Energy=    -286.8236048051
C        1.2795039228    0.2373074515    0.2983863203
C        0.5968983412   -1.0429600343   -0.2183087429
C       -0.6870290504   -0.5811606352   -0.8562826303
C       -1.0754708526    0.2006655090    0.3416878318
C       -0.4400216290    1.2923386920   -0.5126930544
N        0.8663960182    1.4258144212   -0.3878230352
H        2.3001063259    0.1733602870    0.6611120943
H        1.1451009802   -1.9567298001   -0.4185852614
H       -1.2160673372   -0.8849208885   -1.7496782152
H       -2.0746849381    0.3233221260    0.7548540553
H       -1.0370818084    1.9604051420   -1.1257104906
C        0.1460799606   -0.4024258690    1.0925451335
H        0.1962700669   -0.7450164016    2.1204959949
13   
From optimize.out: Frame 18 / 33, Energy=    -286.8164537288
C        1.2892110714    0.2379367064    0.2925400021
C        0.5986759213   -1.0363240113   -0.2086859954
C       -0.6964756612   -0.5691990943   -0.8447061740
C       -1.0838359880    0.1947688937    0.3644542611
C       -0.4542182004    1.2444087718   -0.5395850042
N        0.8616514340    1.4141586588   -0.4024226968
H        2.3117729130    0.1901717856    0.6517218360
H        1.1108357466   -1.9780625648   -0.3701133583
H       -1.1671173668   -0.7654784686   -1.7987709872
H       -2.0739833865    0.3289941583    0.7953013503
H       -1.0605887150    1.9022216871   -1.1535878580
C        0.1539544041   -0.3941877564    1.0991037948
H        0.2101178275   -0.7694087664    2.1147508296
13   
From optimize.out: Frame 16 / 33, Energy=    -286.8150871207
C        1.2973262589    0.2400879740    0.2857854032
C        0.6023598624   -1.0301328727   -0.2030497030
C       -0.7057779013   -0.5711864524   -0.8364961642
C       -1.0891140875    0.1905836802    0.3836235262
C       -0.4684236960    1.2065595102   -0.5558009180
N        0.8528563494    1.4027032285   -0.4250310943
H        2.3270604422    0.2149372600    0.6255216347
H        1.0597061669   -2.0087855823   -0.2935322449
H       -1.1033196690   -0.6566567026   -1.8404775768
H       -2.0752624441    0.3349434050    0.8202633181
H       -1.0857599519    1.8627803505   -1.1603362731
C        0.1630722475   -0.3774883280    1.1037736406
H        0.2252764223   -0.8083454706    2.0957564516
13   
From optimize.out: Frame 12 / 33, Energy=    -286.8080125167
C        1.3061447741    0.2388252580    0.2839819766
C        0.6064344237   -1.0261874905   -0.1970902545
C       -0.7102042406   -0.5729686524   -0.8356031971
C       -1.0941875420    0.1813005736    0.4014096883
C       -0.4853282086    1.1700954260   -0.5621723295
N        0.8427976126    1.3857580873   -0.4521688947
H        2.3482531306    0.2452780726    0.5829692214
H        0.9911571691   -2.0394222383   -0.2157828726
H       -1.0285987379   -0.5602036387   -1.8718342931
H       -2.0825836631    0.3307424643    0.8307361347
H       -1.1041719452    1.8390357564   -1.1511308010
C        0.1735468447   -0.3534048441    1.1104075584
H        0.2367403825   -0.8388487741    2.0762780631
13   
From optimize.out: Frame 9 / 33, Energy=    -286.7938333979
C        1.3202869073    0.2290684978    0.2891485108
C        0.6098384958   -1.0258361540   -0.1861680796
C       -0.7103030478   -0.5732715095   -0.8402855745
C       -1.1029077965    0.1603854275    0.4175842341
C       -0.5056980943    1.1286301263   -0.5586812326
N        0.8324191980    1.3609546997   -0.4780734548
H        2.3762345191    0.2838220973    0.5255884809
H        0.9130740758   -2.0658798454   -0.1601172877
H       -0.9503302974   -0.4696446603   -1.8925935441
H       -2.0980884956    0.3132716128    0.8285782927
H       -1.1074472741    1.8256773944   -1.1329225059
C        0.1848449888   -0.3230023985    1.1195318266
H        0.2380768208   -0.8441752880    2.0684103341
13   
From optimize.out: Frame 7 / 33, Energy=    -286.7748796055
C        1.3444853074    0.2111140601    0.3031325576
C        0.6151018916   -1.0263094381   -0.1706007672
C       -0.7105895770   -0.5724427722   -0.8466725433
C       -1.1183785916    0.1270805556    0.4297660237
C       -0.5285744333    1.0792285588   -0.5466835949
N        0.8244073594    1.3309185918   -0.4983492692
H        2.4095106015    0.3232578966    0.4633721856
H        0.8409079439   -2.0847315117   -0.1385391133
H       -0.8842492367   -0.3820980404   -1.8994683382
H       -2.1230595743    0.2827305899    0.8139296458
H       -1.0933158313    1.8147334959   -1.1112912974
C        0.1975359731   -0.2854112427    1.1265496973
H        0.2262181673   -0.8180707434    2.0748548135
13   
From optimize.out: Frame 5 / 33, Energy=    -286.7416889334
C        1.3826683982    0.1918498021    0.3260830660
C        0.6266743490   -1.0225617304   -0.1541146297
C       -0.7182678908   -0.5703468087   -0.8509253856
C       -1.1428128935    0.0874262320    0.4353247284
C       -0.5556460357    1.0232795357   -0.5286600150
N        0.8250522797    1.3027484833   -0.5139991081
H        2.4504552616    0.3426277940    0.4150387965
H        0.7859477981   -2.0908866253   -0.1453092055
H       -0.8433923148   -0.3006796724   -1.8922294615
H       -2.1580474253    0.2418312529    0.7886256175
H       -1.0717797221    1.7984014819   -1.0881150753
C        0.2144994727   -0.2387595512    1.1222532311
H        0.2046487229   -0.7649301940    2.0860274413
13   
From optimize.out: Frame 3 / 33, Energy=    -286.6854870044
C        1.4356227601    0.1761067522    0.3552193403
C        0.6460059987   -1.0139186859   -0.1409412384
C       -0.7395534475   -0.5670978645   -0.8508376809
C       -1.1765642988    0.0524442313    0.4311777528
C       -0.5887031842    0.9674640214   -0.5084032357
N        0.8432833370    1.2811221524   -0.5240721372
H        2.5040371230    0.3362381810    0.3941345806
H        0.7510676358   -2.0833719316   -0.1644833265
H       -0.8334209336   -0.2342140880   -1.8747664437
H       -2.2017672655    0.2013018061    0.7542479839
H       -1.0598280976    1.7742229071   -1.0643591222
C        0.2390484966   -0.1879763309    1.1008330644
H        0.1807718759   -0.7023211506    2.0922504628
13   
C6H6N->C6H6N atoms 1-13 frame 174 charge +0.000 sz -1.000 sz^2 0.921
C        1.4945531211    0.1648016234    0.3823711129
C        0.6691418911   -1.0034767406   -0.1332213375
C       -0.7719008749   -0.5632165280   -0.8481879253
C       -1.2119697099    0.0275962053    0.4163526739
C       -0.6228899961    0.9153365834   -0.4897250872
N        0.8719274281    1.2594231532   -0.5245483191
H        2.5651342004    0.3175622892    0.3981521641
H        0.7300447440   -2.0656099593   -0.1850149020
H       -0.8479851089   -0.1843804301   -1.8518760800
H       -2.2458049620    0.1705238436    0.7092225877
H       -1.0619450051    1.7442710295   -1.0376378013
C        0.2688995832   -0.1396705417    1.0664172025
H        0.1627946891   -0.6431605281    2.0976957112
13   
C6H6N->C6H6N atoms 1-13 frame 176 charge -0.000 sz -1.000 sz^2 0.955
C        1.5305150754    0.1589301334    0.3839984200
C        0.6821372461   -0.9956540207   -0.1284365937
C       -0.7947977893   -0.5644315213   -0.8657656616
C       -1.2273477200    0.0113651298    0.4036596815
C       -0.6445252196    0.8686074158   -0.4894786690
N        0.8931456891    1.2441940878   -0.5248508518
H        2.6120271307    0.3071944452    0.4433501265
H        0.7048616050   -2.0458570604   -0.1987590338
H       -0.8893498093   -0.1604028134   -1.8536292591
H       -2.2707424320    0.1477814656    0.6590330748
H       -1.0632406239    1.7189950014   -0.9906750673
C        0.2806740863   -0.1062832017    1.0417233478
H        0.1866427615   -0.5844390616    2.1198304859
13   
From optimize.out: Frame 2 / 23, Energy=    -286.6482004836
C        1.5377607138    0.1595851150    0.3594001112
C        0.6822657254   -0.9949996512   -0.1210738263
C       -0.8005603392   -0.5700037473   -0.9122283899
C       -1.2262960545    0.0065392819    0.4048214583
C       -0.6513329920    0.8425035991   -0.5160275905
N        0.9105306604    1.2563472121   -0.5363794041
H        2.6328463867    0.3102099864    0.5343487518
H        0.6805880447   -2.0429815252   -0.1962694483
H       -0.9609113462   -0.1761483247   -1.9062014696
H       -2.2798711159    0.1340902068    0.6245870156
H       -1.0627305606    1.7163212955   -0.9344693541
C        0.2699501166   -0.1023102234    1.0470383835
H        0.2677607607   -0.5391532251    2.1524537624
13   
From optimize.out: Frame 4 / 23, Energy=    -286.7168793349
C        1.5184017855    0.1659431522    0.3356193981
C        0.6754293145   -0.9988790200   -0.1165757856
C       -0.7858837068   -0.5713385243   -0.9363387560
C       -1.2130400494    0.0123845513    0.4152230104
C       -0.6401929489    0.8526469627   -0.5381459666
N        0.9107112634    1.2760488933   -0.5431138727
H        2.6062074968    0.3154374428    0.5807873970
H        0.6808724387   -2.0570665312   -0.1842919737
H       -0.9933261601   -0.2093100612   -1.9444617654
H       -2.2686440774    0.1367158963    0.6316748681
H       -1.0630583723    1.7393875757   -0.9209162358
C        0.2538315642   -0.1230309275    1.0670598343
H        0.3186914520   -0.5389394101    2.1534798479
13   
From optimize.out: Frame 8 / 23, Energy=    -286.7862627147
C        1.4623572337    0.1782760558    0.3131473503
C        0.6580082583   -1.0085711722   -0.1192893307
C       -0.7487111448   -0.5697060998   -0.9253081957
C       -1.1813547669    0.0319124235    0.4306930713
C       -0.6082928124    0.9008958770   -0.5517724685
N        0.8797619116    1.2933251768   -0.5411806931
H        2.5300969593    0.3272105520    0.5587856703
H        0.7024554752   -2.0776455609   -0.1684410253
H       -0.9611682333   -0.2511081618   -1.9453639210
H       -2.2300901670    0.1622972924    0.6767961360
H       -1.0579648681    1.7812331728   -0.9568229640
C        0.2320642212   -0.1685098174    1.0942321946
H        0.3228379331   -0.5996097381    2.1345241759
13   
From optimize.out: Frame 10 / 23, Energy=    -286.8016925110
C        1.4084597944    0.1928696744    0.2924000792
C        0.6391811740   -1.0170339384   -0.1301027693
C       -0.7180014321   -0.5658401707   -0.9065007623
C       -1.1508948688    0.0611543219    0.4379307713
C       -0.5750171901    0.9549171125   -0.5636615232
N        0.8487053125    1.3054120105   -0.5294388030
H        2.4635162877    0.3325752942    0.5439173829
H        0.7335882523   -2.0904615704   -0.1586108052
H       -0.9337516222   -0.3035532357   -1.9389925713
H       -2.1903533754    0.1989187765    0.7176531999
H       -1.0618944654    1.8128169190   -0.9957792217
C        0.2132136086   -0.2165136632    1.1137157081
H        0.3232485245   -0.6652615307    2.1174693145
13   
From optimize.out: Frame 12 / 23, Energy=    -286.8109479957
C        1.3662536934    0.2093539927    0.2782142653
C        0.6240319210   -1.0223024274   -0.1482028497
C       -0.7013740060   -0.5578132609   -0.8844691158
C       -1.1275555111    0.1003583347    0.4367881548
C       -0.5450117897    1.0136882122   -0.5761289150
N        0.8357890264    1.3256567643   -0.5101525160
H        2.4129116911    0.3227489299    0.5502743157
H        0.7826037269   -2.0924829891   -0.1574634920
H       -0.9313025733   -0.3755041498   -1.9287024145
H       -2.1554332548    0.2429059347    0.7557196584
H       -1.0797588492    1.8325117628   -1.0387538768
C        0.1991245385   -0.2659918747    1.1218373186
H        0.3197213867   -0.7331292293    2.1010394672
13   
From optimize.out: Frame 15 / 23, Energy=    -286.8197272793
C        1.3384204180    0.2247977850    0.2741292742
C        0.6145838571   -1.0220249797   -0.1703502673
C       -0.6973027794   -0.5441426256   -0.8655310413
C       -1.1116789890    0.1401117609    0.4294764842
C       -0.5185282932    1.0673024661   -0.5872306532
N        0.8403258870    1.3528543385   -0.4839560201
H        2.3776865674    0.2960244116    0.5764275065
H        0.8502525778   -2.0795053780   -0.1749104004
H       -0.9620917120   -0.4607571782   -1.9126305847
H       -2.1260076642    0.2827101827    0.7908245120
H       -1.0994173234    1.8368479795   -1.0825222983
C        0.1876560807   -0.3092947532    1.1188548948
H        0.3061013731   -0.7849240096    2.0874185936
13   
From optimize.out: Frame 17 / 23, Energy=    -286.8235590170
C        1.3221578484    0.2366733147    0.2798097451
C        0.6093270279   -1.0173784527   -0.1898841773
C       -0.6965802202   -0.5239884065   -0.8559136026
C       -1.1026762638    0.1703877751    0.4192055199
C       -0.4958232319    1.1065481634   -0.5962103673
N        0.8521961325    1.3799973353   -0.4503668786
H        2.3542848977    0.2621234667    0.6105714487
H        0.9279036945   -2.0525771748   -0.2181536569
H       -1.0218244297   -0.5487547423   -1.8879394341
H       -2.1031000949    0.3109033134    0.8193344687
H       -1.1053234548    1.8304289792   -1.1256675953
C        0.1770333273   -0.3436898456    1.1115654849
H        0.2824247669   -0.8106737258    2.0836490448
13   
From optimize.out: Frame 21 / 23, Energy=    -286.8249791841
C        1.3135273656    0.2446060214    0.2923001766
C        0.6048789722   -1.0111786056   -0.2027061058
C       -0.6904505057   -0.4933457870   -0.8595223977
C       -1.0993234473    0.1883505790    0.4091677601
C       -0.4783509964    1.1270360478   -0.6062387843
N        0.8654897680    1.4029009775   -0.4108929682
H        2.3392791020    0.2305345653    0.6440808340
H        1.0011356127   -2.0160698219   -0.2826295472
H       -1.0962622543   -0.6355248268   -1.8518396268
H       -2.0873983795    0.3264537090    0.8396967515
H       -1.0942486867    1.8216558427   -1.1659548335
C        0.1670448645   -0.3710875531    1.1048007862
H        0.2546785849   -0.8143311484    2.0897379550
13   
From optimize.out: Frame 1 / 3, Energy=    -286.8249802177
C        1.3087941640    0.2501494305    0.3096275292
C        0.5982597018   -1.0052481749   -0.2098402692
C       -0.6749387181   -0.4448430077   -0.8785016418
C       -1.0988650683    0.1969773260    0.4025843839
C       -0.4653370355    1.1258911181   -0.6251044297
N        0.8785365883    1.4198670827   -0.3702371512
H        2.3291210670    0.2057071019    0.6755662560
H        1.0581562047   -1.9746288609   -0.3572182439
H       -1.1694057644   -0.7224096960   -1.7989240482
H       -2.0785820869    0.3335565492    0.8505214076
H       -1.0739657154    1.8164340697   -1.1970969438
C        0.1574372845   -0.3940808817    1.0994074667
H        0.2307893783   -0.8073720567    2.0992156843
13   
From optimize.out: Frame 2 / 3, Energy=    -286.8249843035
C        1.3034546361    0.2523792074    0.3288982450
C        0.5916208169   -1.0050615106   -0.2092733159
C       -0.6521746658   -0.3977619576   -0.9052004810
C       -1.0959615426    0.1946255814    0.4034628598
C       -0.4551047710    1.1111037542   -0.6554759130
N        0.8876507590    1.4247890291   -0.3428919214
H        2.3207843931    0.1923823779    0.6997398880
H        1.0948072486   -1.9399707229   -0.4291213193
H       -1.2305206661   -0.8066343762   -1.7260998326
H       -2.0890181747    0.3400189988    0.8137148189
H       -1.0542314864    1.8406678575   -1.1890933672
C        0.1477966174   -0.4136884767    1.0994451576
H        0.2308968352   -0.7928497623    2.1118951812
