13   
Frame  62 IRC: Energy =  -286.8593270000 ; +8.9000 kcal/mol
C        1.1921562776    0.3473297423    0.3862301082
C        0.6895085021   -1.0654228600   -0.1619850445
C       -0.5726658635   -0.9313814153   -0.8727470668
C       -1.0834212480    0.1350959609    0.0922735442
C       -0.5118158617    1.4488935158   -0.4288711788
N        0.7640886679    1.5377815011   -0.3047743081
H        2.1943850376    0.3406009617    0.8003429146
H        1.4084564521   -1.8761584130   -0.2061662775
H       -0.9039500061   -1.2294807272   -1.8626967420
H       -2.1329233808    0.1247318747    0.3919017352
H       -1.0864934924    2.1947849615   -0.9738844555
C        0.0629944951   -0.3455149695    1.0561239523
H       -0.0203195799   -0.6812601331    2.0842528188
13   
Frame  62 IRC: Energy =  -286.8593270000 ; +8.9000 kcal/mol
C        1.1921562776    0.3473297423    0.3862301082
C        0.6895085021   -1.0654228600   -0.1619850445
C       -0.5726658635   -0.9313814153   -0.8727470668
C       -1.0834212480    0.1350959609    0.0922735442
C       -0.5118158617    1.4488935158   -0.4288711788
N        0.7640886679    1.5377815011   -0.3047743081
H        2.1943850376    0.3406009617    0.8003429146
H        1.4084564521   -1.8761584130   -0.2061662775
H       -0.9039500061   -1.2294807272   -1.8626967420
H       -2.1329233808    0.1247318747    0.3919017352
H       -1.0864934924    2.1947849615   -0.9738844555
C        0.0629944951   -0.3455149695    1.0561239523
H       -0.0203195799   -0.6812601331    2.0842528188
