13   
From qcts2.out: Frame 4 / 4, Energy=    -286.8475377375
C        1.1747872081    0.2344068355    0.4244369834
C        0.7521739279   -1.0068099792   -0.3618252714
C       -0.5468061641   -0.8764865343   -0.8795568184
C       -1.0717392343    0.1935578094    0.0759293488
C       -0.4190889408    1.4966770038   -0.3907692571
N        0.8554706751    1.5099535251   -0.2295168087
H        2.1523525685    0.1857403297    0.8952794914
H        1.4455132570   -1.8284307438   -0.5186678062
H       -1.0580241520   -1.4476689668   -1.6417583541
H       -2.1381654630    0.2065945685    0.2986079956
H       -0.9411984937    2.2926905361   -0.9173917298
C       -0.0385017894   -0.2370669849    1.1441023404
H       -0.1667733999   -0.7231573990    2.1011298866
13   
From qcts2.out: Frame 4 / 4, Energy=    -286.8475377375
C        1.1747872081    0.2344068355    0.4244369834
C        0.7521739279   -1.0068099792   -0.3618252714
C       -0.5468061641   -0.8764865343   -0.8795568184
C       -1.0717392343    0.1935578094    0.0759293488
C       -0.4190889408    1.4966770038   -0.3907692571
N        0.8554706751    1.5099535251   -0.2295168087
H        2.1523525685    0.1857403297    0.8952794914
H        1.4455132570   -1.8284307438   -0.5186678062
H       -1.0580241520   -1.4476689668   -1.6417583541
H       -2.1381654630    0.2065945685    0.2986079956
H       -0.9411984937    2.2926905361   -0.9173917298
C       -0.0385017894   -0.2370669849    1.1441023404
H       -0.1667733999   -0.7231573990    2.1011298866
