13   
From qcts2.out: Frame 4 / 4, Energy=    -286.8438738381
C        1.1572173664    0.1586280257    0.4045243481
C        0.8974795935   -0.9676427411   -0.5899155269
C       -0.5007369262   -1.0140392325   -0.4942619578
C       -1.0852404314    0.2958680508    0.0491930763
C       -0.3606939806    1.4998442399   -0.5022428219
N        0.9029347424    1.4631818934   -0.2907681708
H        2.1005771980    0.1592987974    0.9473088278
H        1.5842661721   -1.6270212051   -1.1004994819
H       -1.1597081069   -1.8247912805   -0.7934498710
H       -2.1621171587    0.3151065870    0.1974433733
H       -0.8301217001    2.2989435755   -1.0720133491
C       -0.1684645229   -0.1564792474    1.1410278191
H       -0.3753922454   -0.6008974637    2.1036537347
13   
From qcts2.out: Frame 4 / 4, Energy=    -286.8438738381
C        1.1572173664    0.1586280257    0.4045243481
C        0.8974795935   -0.9676427411   -0.5899155269
C       -0.5007369262   -1.0140392325   -0.4942619578
C       -1.0852404314    0.2958680508    0.0491930763
C       -0.3606939806    1.4998442399   -0.5022428219
N        0.9029347424    1.4631818934   -0.2907681708
H        2.1005771980    0.1592987974    0.9473088278
H        1.5842661721   -1.6270212051   -1.1004994819
H       -1.1597081069   -1.8247912805   -0.7934498710
H       -2.1621171587    0.3151065870    0.1974433733
H       -0.8301217001    2.2989435755   -1.0720133491
C       -0.1684645229   -0.1564792474    1.1410278191
H       -0.3753922454   -0.6008974637    2.1036537347
