13   
Frame  91 IRC: Energy =  -286.8969190000 ; +30.9289 kcal/mol
C        1.0353053643    0.1299159643    0.2728727481
C        1.0742140721   -1.1269410687   -0.5962416588
C       -0.1385695619   -1.5480539586   -0.2105008476
C       -1.2523622987    0.7510074688    0.2288016915
C       -0.4260712275    1.6744010642   -0.4344993837
N        0.8724925707    1.3843821686   -0.4545798531
H        1.8216842195    0.2198245387    1.0323659012
H        1.8223344834   -1.4967304249   -1.2894938152
H       -0.7551023046   -2.4053252598   -0.4656483834
H       -2.3296604158    0.8258562125    0.3287178283
H       -0.7818515711    2.5708697019   -0.9379095071
C       -0.3937234784   -0.3597332523    0.7356339378
H       -0.5486898519   -0.6194731548    1.7904813419
13   
Frame  91 IRC: Energy =  -286.8969190000 ; +30.9289 kcal/mol
C        1.0353053643    0.1299159643    0.2728727481
C        1.0742140721   -1.1269410687   -0.5962416588
C       -0.1385695619   -1.5480539586   -0.2105008476
C       -1.2523622987    0.7510074688    0.2288016915
C       -0.4260712275    1.6744010642   -0.4344993837
N        0.8724925707    1.3843821686   -0.4545798531
H        1.8216842195    0.2198245387    1.0323659012
H        1.8223344834   -1.4967304249   -1.2894938152
H       -0.7551023046   -2.4053252598   -0.4656483834
H       -2.3296604158    0.8258562125    0.3287178283
H       -0.7818515711    2.5708697019   -0.9379095071
C       -0.3937234784   -0.3597332523    0.7356339378
H       -0.5486898519   -0.6194731548    1.7904813419
