13   
From qcts2.out: Frame 4 / 4, Energy=    -286.8475237380
C        1.1677168212    0.2838973103    0.4135643928
C        0.7858967194   -0.9861561199   -0.3468989951
C       -0.5191914045   -0.9118205300   -0.8600837846
C       -1.0775357404    0.1566728535    0.0781071785
C       -0.4741414979    1.4731811619   -0.4166990418
N        0.7999085676    1.5348674990   -0.2625903723
H        2.1485531976    0.2790416683    0.8800477790
H        1.5071917191   -1.7855568278   -0.4921087517
H       -1.0133483809   -1.5159258309   -1.6080148323
H       -2.1427178238    0.1358557182    0.3060539935
H       -1.0267381269    2.2398496735   -0.9555851258
C       -0.0246041037   -0.2164853195    1.1484818871
H       -0.1309899470   -0.6874212560    2.1157256729
13   
From qcts2.out: Frame 4 / 4, Energy=    -286.8475237380
C        1.1677168212    0.2838973103    0.4135643928
C        0.7858967194   -0.9861561199   -0.3468989951
C       -0.5191914045   -0.9118205300   -0.8600837846
C       -1.0775357404    0.1566728535    0.0781071785
C       -0.4741414979    1.4731811619   -0.4166990418
N        0.7999085676    1.5348674990   -0.2625903723
H        2.1485531976    0.2790416683    0.8800477790
H        1.5071917191   -1.7855568278   -0.4921087517
H       -1.0133483809   -1.5159258309   -1.6080148323
H       -2.1427178238    0.1358557182    0.3060539935
H       -1.0267381269    2.2398496735   -0.9555851258
C       -0.0246041037   -0.2164853195    1.1484818871
H       -0.1309899470   -0.6874212560    2.1157256729
