13   
From optimize.out: Frame 1 / 2, Energy=    -286.8707992435
C        1.0182254745    0.4598106110   -1.4022864946
C       -1.0955307097   -0.5215895079   -0.5842454049
C       -1.6693171427   -0.7768051161    0.6358831098
C       -0.7533893595   -0.3293668196    1.6373208423
C        0.3460334653    0.1832789227    0.9933749780
N        0.1409794024    0.0681610131   -0.3703629470
H        0.6075246801    0.2601118465   -2.3914448729
H       -1.4453017255   -0.7022057706   -1.5907590313
H       -2.6369128068   -1.2322000025    0.7978683765
H       -0.8902570383   -0.3789841273    2.7093083715
H        1.2549405289    0.6213926643    1.3773203071
C        2.2091632495    1.0082448213   -1.2793551747
H        2.9138419820    1.3401514649   -0.5326220593
13   
From optimize.out: Frame 5 / 6, Energy=    -286.8436624675
C        2.2576541234    1.0569036929   -1.8474739515
C       -1.2600449915   -0.5640554463   -0.2531037245
C       -2.0728314938   -1.0625525576    0.8515745175
C       -1.4385772061   -0.6409546384    1.9821717888
C       -0.2638735143    0.0873066155    1.5158647747
N       -0.1803995255    0.1220608733    0.1712480673
H        1.4383020765    0.8479428425   -1.1818177789
H       -1.4508163177   -0.6978185393   -1.3139724514
H       -2.9843070828   -1.6402157607    0.7674973373
H       -1.7227525770   -0.8006980195    3.0140360049
H        0.4914139655    0.5647498646    2.1328547438
C        3.1833518380    1.2692105125   -2.5918526379
H        4.0028807053    1.4581205605   -3.2470266903
