13   
From optimize.out: Frame 1 / 2, Energy=    -286.8383302656
C        1.2023813128    0.2879530947    0.3826809800
C        0.6317420420   -1.1045369603   -0.1508848034
C       -0.6176558106   -0.9070940666   -0.8726985933
C       -1.0788654083    0.1774265367    0.0986296654
C       -0.4490736059    1.4618832839   -0.4271018612
N        0.8286106003    1.4942803355   -0.3120741618
H        2.2051280179    0.2368354409    0.7945884707
H        1.3122759429   -1.9493048569   -0.1906914978
H       -0.9097517602   -1.1110255127   -1.9001690825
H       -2.1279032222    0.2117534019    0.4007941815
H       -0.9939788507    2.2280979763   -0.9763747156
C        0.0451763133   -0.3543856156    1.0595434799
H       -0.0480855712   -0.6718830578    2.0937579381
