13   
From optimize.out: Frame 1 / 1, Energy=    -286.8549868008
C        1.6972674499    0.2878043459   -0.2177946769
C        1.0901877441   -0.9150443011   -0.1130997488
C       -0.3619637773   -1.0474732349    0.0889831806
C       -1.1404209314    0.3810042155   -0.0222865165
C       -0.2577572752    1.5000476524   -0.4006826261
N        1.0305620919    1.4987760097   -0.4081843795
H        2.7791612696    0.3569904953   -0.2962301170
H        1.6743188469   -1.8289541903   -0.1884936329
H       -0.8372409141   -1.9446421130   -0.3118803428
H       -2.1404458750    0.4184069429   -0.4587273145
H       -0.7545360329    2.4046352209   -0.7599226703
C       -0.9922145815   -0.3754667208    1.2230969943
H       -1.7869180147   -0.7360843224    1.8652218504
