13   
From optimize.out: Frame 2 / 3, Energy=    -286.8584616693
C        1.5360581838    0.4300917552   -0.3803367058
C        0.8437398609   -0.7972775747    0.0801986016
C       -0.5859840657   -1.0274911740   -0.3819403129
C       -1.1171137319    0.3117013152    0.1012930658
C       -0.4277233869    1.5419629907   -0.3563521428
N        0.8835531480    1.5723176511   -0.5867061993
H        2.6089057712    0.4191080093   -0.5624229367
H        1.4551752420   -1.6865592210    0.2246630577
H       -1.0692904091   -1.8717942217   -0.8535197564
H       -2.1914735373    0.3770133129    0.2647657020
H       -0.9907430647    2.4598855674   -0.5142812157
C       -0.3510370587   -0.6403404668    1.0056614644
H       -0.5940669521   -1.0886179431    1.9589773776
13   
From optimize.out: Frame 2 / 3, Energy=    -286.8383166369
C        1.2425381889    0.3277067981    0.1556931888
C        0.6185841314   -1.1159574044   -0.1200185899
C       -0.7301473301   -1.0005102675   -0.6579204265
C       -1.0530701161    0.1890328593    0.2437334282
C       -0.5328981012    1.4036383952   -0.5154230618
N        0.7466367192    1.4463055258   -0.6061543810
H        2.2974935004    0.3227267799    0.4101118343
H        1.2981713623   -1.9610977736   -0.1679564784
H       -1.1741498152   -1.3199322085   -1.5978683366
H       -2.0430188986    0.2589434978    0.6999742199
H       -1.1685166811    2.1036960416   -1.0553544173
C        0.2142445099   -0.2292037454    1.0727384849
H        0.2841325299   -0.4253484982    2.1384445353
