13   
Frame   0 IRC: Energy =  -286.8792740000 ; +0.0000 kcal/mol
C        1.5412921303    0.4405422263   -0.3489462594
C        0.8430675380   -0.8003856837    0.0637601250
C       -0.5873749817   -1.0214460335   -0.3966521166
C       -1.1163760657    0.3124700636    0.1115571339
C       -0.4329709969    1.5399148747   -0.3621540183
N        0.8834476993    1.5789169815   -0.5670830006
H        2.6230327411    0.4505011624   -0.4599555363
H        1.4538394952   -1.6924799523    0.1881294443
H       -1.0744974989   -1.8578082869   -0.8768057403
H       -2.1888754130    0.3793423391    0.2833070765
H       -1.0065226366    2.4381921126   -0.5786348635
C       -0.3493482713   -0.6528633211    0.9983202368
H       -0.5887137401   -1.1148964824    1.9451575180
13   
Frame   1 IRC: Energy =  -286.8785795464 ; +0.4358 kcal/mol
C        1.5433935236    0.4447501612   -0.3331228972
C        0.8378724493   -0.8076553405    0.0306007197
C       -0.6017034932   -1.0108845712   -0.3976802629
C       -1.1100057615    0.3212569674    0.1414254360
C       -0.4351832558    1.5352885785   -0.3800203065
N        0.8825269888    1.5781740131   -0.5667086577
H        2.6304236847    0.4766816462   -0.3489514016
H        1.4424192234   -1.7076197401    0.1226614732
H       -1.1090597110   -1.8379144827   -0.8738156724
H       -2.1765125866    0.3966555692    0.3452067512
H       -1.0203946834    2.4012413296   -0.6794884773
C       -0.3321757492   -0.6585154145    0.9966850538
H       -0.5516006289   -1.1314587161    1.9432082416
13   
Frame   2 IRC: Energy =  -286.8771756436 ; +1.3167 kcal/mol
C        1.5427559265    0.4475694320   -0.3213673868
C        0.8317733128   -0.8150311978   -0.0087267841
C       -0.6171873119   -1.0038343119   -0.4008245402
C       -1.1035629990    0.3281772658    0.1611198103
C       -0.4373534888    1.5307712568   -0.4018703024
N        0.8812560445    1.5770034199   -0.5665219811
H        2.6259269898    0.5004745063   -0.2212295699
H        1.4298875814   -1.7223887871    0.0506097429
H       -1.1449718779   -1.8279123727   -0.8593371249
H       -2.1625638938    0.4120812865    0.3971163123
H       -1.0296909233    2.3677716585   -0.7610076412
C       -0.3118419693   -0.6598825910    0.9907518536
H       -0.5044273912   -1.1347995653    1.9412876115
13   
Frame   3 IRC: Energy =  -286.8747913791 ; +2.8129 kcal/mol
C        1.5412901409    0.4488808425   -0.3146255950
C        0.8245964624   -0.8240592994   -0.0536293570
C       -0.6327627914   -1.0024592059   -0.4054964809
C       -1.0976026265    0.3326288335    0.1660735172
C       -0.4389448381    1.5264172290   -0.4262926349
N        0.8798769353    1.5775772601   -0.5657066067
H        2.6009206980    0.5165406144   -0.0809425077
H        1.4182272361   -1.7355471161   -0.0251446224
H       -1.1784996426   -1.8345204203   -0.8283714004
H       -2.1482507350    0.4240405448    0.4321213933
H       -1.0337813131    2.3504022943   -0.8152364636
C       -0.2886909855   -0.6561939702    0.9787526107
H       -0.4463785407   -1.1237076067    1.9384981475
13   
Frame   4 IRC: Energy =  -286.8711100573 ; +5.1230 kcal/mol
C        1.5348370998    0.4496503182   -0.3102558550
C        0.8185061344   -0.8321449272   -0.1011206546
C       -0.6474414093   -1.0048067406   -0.4119730400
C       -1.0915326240    0.3337608951    0.1605636944
C       -0.4409831393    1.5275651362   -0.4507252741
N        0.8801108893    1.5805374652   -0.5595791974
H        2.5592577101    0.5206822580    0.0584337895
H        1.4086975346   -1.7459472266   -0.0993716627
H       -1.2061388736   -1.8535655685   -0.7820373254
H       -2.1353363672    0.4312281559    0.4531644669
H       -1.0321670672    2.3457276801   -0.8502366191
C       -0.2642226691   -0.6480309422    0.9619084029
H       -0.3835872186   -1.1046565036    1.9312292747
13   
Frame   5 IRC: Energy =  -286.8658781167 ; +8.4061 kcal/mol
C        1.5298888130    0.4508111114   -0.3028837115
C        0.8128104720   -0.8392847842   -0.1516712471
C       -0.6587385037   -1.0074310775   -0.4234861594
C       -1.0870625341    0.3354695986    0.1469720088
C       -0.4416829424    1.5321780801   -0.4707136537
N        0.8793748809    1.5891096613   -0.5428473747
H        2.5028182877    0.5077612251    0.1865490002
H        1.3987588763   -1.7556555811   -0.1665196417
H       -1.2257957391   -1.8783301832   -0.7195383941
H       -2.1228196636    0.4278129106    0.4658644133
H       -1.0302614633    2.3507891626   -0.8754785101
C       -0.2367626594   -0.6337574778    0.9396524059
H       -0.3205278242   -1.0794726459    1.9141008642
13   
Frame   6 IRC: Energy =  -286.8586764039 ; +12.9252 kcal/mol
C        1.5193728693    0.4503260589   -0.2829545653
C        0.8101959145   -0.8509984426   -0.2035410980
C       -0.6599796906   -0.9991522336   -0.4470716269
C       -1.0817703057    0.3393608968    0.1281124670
C       -0.4465557458    1.5424652982   -0.4867539815
N        0.8744214124    1.5967872606   -0.5141638510
H        2.4442579185    0.4760418932    0.2922165760
H        1.3859479411   -1.7767550850   -0.2180522913
H       -1.2324809430   -1.8930902272   -0.6418713538
H       -2.1076611295    0.4094074127    0.4767170050
H       -1.0402213170    2.3601444941   -0.8946524064
C       -0.2041499049   -0.6078359083    0.9077042256
H       -0.2613770193   -1.0467014176    1.8843109007
13   
Frame   7 IRC: Energy =  -286.8471695482 ; +20.1459 kcal/mol
C        1.4795664610    0.4399151562   -0.2229948623
C        0.8074022462   -0.8792952478   -0.2487419019
C       -0.6530820395   -0.9752787852   -0.5044935629
C       -1.0729448793    0.3432182097    0.1120873995
C       -0.4626984985    1.5530724512   -0.4947562678
N        0.8621637800    1.5880943643   -0.4943572872
H        2.3992061391    0.4418511802    0.3553437988
H        1.3809762423   -1.8110648363   -0.2471534331
H       -1.2228453972   -1.8855427780   -0.5705087004
H       -2.0907232150    0.3892318812    0.4843930573
H       -1.0586759663    2.3650902704   -0.9050269206
C       -0.1551147417   -0.5604886572    0.8834668615
H       -0.2132301310   -1.0088032088    1.8527418191
13   
Frame   8 IRC: Energy =  -286.8266270163 ; +33.0365 kcal/mol
C        1.4196121662    0.4248643130   -0.1319963826
C        0.7897923688   -0.9180875054   -0.2733490260
C       -0.6545981207   -0.9581799268   -0.6030373094
C       -1.0658391812    0.3402242437    0.1069163620
C       -0.4751188359    1.5537800167   -0.4894393777
N        0.8492249358    1.5753074977   -0.5019968857
H        2.3775015376    0.4266075511    0.3760902395
H        1.3840489057   -1.8324277902   -0.2567348523
H       -1.2181342559   -1.8822467931   -0.5390928036
H       -2.0843823195    0.3815760442    0.4856181683
H       -1.0641565404    2.3610546711   -0.9061588199
C       -0.0743366675   -0.4918844811    0.8901089689
H       -0.1836139930   -0.9805878409    1.8430717185
13   
Frame   9 IRC: Energy =  -286.8156396776 ; +39.9312 kcal/mol (Transition State)
C        1.3662629965    0.4000247317   -0.0376468503
C        0.7630525286   -0.9522587285   -0.2837904684
C       -0.6676282237   -0.9528398192   -0.7088010133
C       -1.0633890725    0.3250475108    0.1094388474
C       -0.4725540832    1.5477117172   -0.4846184905
N        0.8290999985    1.5740504387   -0.5188942124
H        2.3670270571    0.4208697471    0.3833140065
H        1.3856236591   -1.8396035103   -0.2616529313
H       -1.2172864489   -1.8780982383   -0.5302280652
H       -2.0833518216    0.3781629948    0.4852826658
H       -1.0629083240    2.3562825309   -0.9063479406
C        0.0142791510   -0.4220073410    0.9099192657
H       -0.1582274169   -0.9573420339    1.8440251868
13   
Frame  10 IRC: Energy =  -286.8328864869 ; +29.1086 kcal/mol
C        1.3108742942    0.3686947679    0.0630630184
C        0.7330428127   -0.9773131747   -0.3017671021
C       -0.6805736557   -0.9450611195   -0.7908296715
C       -1.0573262777    0.2892967999    0.1058585061
C       -0.4705602781    1.5410385005   -0.4855555207
N        0.8137734712    1.5703798831   -0.5280864742
H        2.3506142897    0.4118803932    0.3909704956
H        1.3841019541   -1.8438434613   -0.2698516664
H       -1.2183432415   -1.8660622070   -0.5385536793
H       -2.0784394955    0.3704832445    0.4853288011
H       -1.0621855768    2.3513870528   -0.9081360151
C        0.0951654657   -0.3454363551    0.9339406081
H       -0.1201437621   -0.9254443243    1.8436186999
13   
Frame  11 IRC: Energy =  -286.8449375911 ; +21.5464 kcal/mol
C        1.2654021123    0.3536767424    0.1441070930
C        0.7139012981   -0.9905498892   -0.3204480587
C       -0.6837234708   -0.9376269463   -0.8284332122
C       -1.0507074243    0.2647410737    0.0930589683
C       -0.4757290418    1.5299723106   -0.4921742992
N        0.8055051753    1.5615731088   -0.5095857128
H        2.3152238239    0.3819502862    0.4231006290
H        1.3735830619   -1.8516631010   -0.2921114416
H       -1.2348677956   -1.8501375637   -0.5847180998
H       -2.0640942018    0.3433628025    0.4865458255
H       -1.0650064122    2.3387912728   -0.9179519016
C        0.1359781594   -0.2891723903    0.9424796877
H       -0.0354652844   -0.8549177064    1.8561305225
13   
Frame  12 IRC: Energy =  -286.8510733819 ; +17.6962 kcal/mol
C        1.2549236879    0.3517192230    0.1591643379
C        0.7032595365   -0.9984801493   -0.3173839669
C       -0.6819922365   -0.9268493239   -0.8449928878
C       -1.0516587916    0.2526705777    0.0953498012
C       -0.4782358081    1.5245075154   -0.4898137205
N        0.8017898161    1.5647797679   -0.4934559508
H        2.2901816030    0.3498507222    0.4808613697
H        1.3614544561   -1.8600852403   -0.3239603218
H       -1.2643593910   -1.8352149358   -0.6777972779
H       -2.0653404813    0.3080536353    0.4890627472
H       -1.0705755722    2.3185640178   -0.9416268373
C        0.1417477740   -0.2846132900    0.9483859089
H        0.0588054072   -0.7649025200    1.9162067980
13   
Frame  13 IRC: Energy =  -286.8545423534 ; +15.5194 kcal/mol
C        1.2482594056    0.3459888416    0.1702578011
C        0.6941263355   -1.0116895270   -0.2996123197
C       -0.6764434064   -0.9120443126   -0.8514891679
C       -1.0520494579    0.2398339513    0.1115006077
C       -0.4824250153    1.5152974460   -0.4853270322
N        0.7973366762    1.5547316503   -0.4905610820
H        2.2767199778    0.3362245892    0.5160778862
H        1.3536393403   -1.8700103491   -0.3472244703
H       -1.2891803479   -1.8118936636   -0.8048939467
H       -2.0692173943    0.2799020709    0.4978279525
H       -1.0766143044    2.2899199841   -0.9626574827
C        0.1489650308   -0.2826321119    0.9669933369
H        0.1268831600   -0.6736285693    1.9791079171
13   
Frame  14 IRC: Energy =  -286.8562261005 ; +14.4628 kcal/mol
C        1.2473054294    0.3421320541    0.1772668714
C        0.6844239944   -1.0268862174   -0.2719862543
C       -0.6695519458   -0.9025434105   -0.8453029139
C       -1.0505384478    0.2282130228    0.1326662252
C       -0.4885866263    1.4996607473   -0.4828923376
N        0.7917348770    1.5409276299   -0.4982715452
H        2.2760132824    0.3329058845    0.5207722090
H        1.3464684282   -1.8832612141   -0.3380297726
H       -1.3066729230   -1.7746569498   -0.9574576264
H       -2.0671122447    0.2591782211    0.5233941919
H       -1.0892505271    2.2586679755   -0.9799743950
C        0.1587294656   -0.2751622086    0.9919995798
H        0.1670372376   -0.5991755349    2.0278157678
13   
Frame  15 IRC: Energy =  -286.8568800000 ; +14.0525 kcal/mol
C        1.2483716090    0.3417904151    0.1798459084
C        0.6741668978   -1.0428831529   -0.2404276722
C       -0.6673300102   -0.9026537412   -0.8239893823
C       -1.0495599049    0.2183465473    0.1545745935
C       -0.4960311444    1.4838652168   -0.4861582462
N        0.7849735175    1.5268870835   -0.5117809031
H        2.2821494015    0.3351545634    0.5080963326
H        1.3384978317   -1.8977749160   -0.3040037827
H       -1.3142607339   -1.7226840535   -1.1111572136
H       -2.0623535969    0.2483765045    0.5565025893
H       -1.1035669276    2.2279371494   -0.9963151658
C        0.1708727986   -0.2632089231    1.0143515785
H        0.1940702618   -0.5531526933    2.0604613636
