13   
Frame   0 IRC: Energy =  -286.8792740000 ; +0.0000 kcal/mol
C        1.5412921303    0.4405422263   -0.3489462594
C        0.8430675380   -0.8003856837    0.0637601250
C       -0.5873749817   -1.0214460335   -0.3966521166
C       -1.1163760657    0.3124700636    0.1115571339
C       -0.4329709969    1.5399148747   -0.3621540183
N        0.8834476993    1.5789169815   -0.5670830006
H        2.6230327411    0.4505011624   -0.4599555363
H        1.4538394952   -1.6924799523    0.1881294443
H       -1.0744974989   -1.8578082869   -0.8768057403
H       -2.1888754130    0.3793423391    0.2833070765
H       -1.0065226366    2.4381921126   -0.5786348635
C       -0.3493482713   -0.6528633211    0.9983202368
H       -0.5887137401   -1.1148964824    1.9451575180
