13   
From optimize.out: Frame 2 / 3, Energy=    -286.8584616693
C        1.5360581838    0.4300917552   -0.3803367058
C        0.8437398609   -0.7972775747    0.0801986016
C       -0.5859840657   -1.0274911740   -0.3819403129
C       -1.1171137319    0.3117013152    0.1012930658
C       -0.4277233869    1.5419629907   -0.3563521428
N        0.8835531480    1.5723176511   -0.5867061993
H        2.6089057712    0.4191080093   -0.5624229367
H        1.4551752420   -1.6865592210    0.2246630577
H       -1.0692904091   -1.8717942217   -0.8535197564
H       -2.1914735373    0.3770133129    0.2647657020
H       -0.9907430647    2.4598855674   -0.5142812157
C       -0.3510370587   -0.6403404668    1.0056614644
H       -0.5940669521   -1.0886179431    1.9589773776
