13   
From optimize.out: Frame 1 / 33, Energy=    -286.5986829163
C        1.4177021600    0.0543434341   -0.3888520303
C        0.5781031846   -1.1013930735   -0.9253618226
C       -0.8960485377   -0.6688224365   -1.6295286630
C       -1.3356791352   -0.1032072525   -0.3805350028
C       -0.7514935394    0.7764702614   -1.2547273340
N        0.7697528512    1.1361611096   -1.2956737704
H        2.4879135803    0.2039273517   -0.3879580028
H        0.6241658325   -2.1564528769   -0.9975508124
H       -0.9626313800   -0.2598942976   -2.6160908271
H       -2.3728045647    0.0309752892   -0.1003484796
H       -1.1832681148    1.6141095182   -1.7968389364
C        0.1788893960   -0.2258373259    0.2552919842
H        0.0405310079   -0.7290887633    1.3044864252
13   
From optimize.out: Frame 2 / 33, Energy=    -286.6460069400
C        1.3838287008    0.0603802093   -0.4013987025
C        0.5655981771   -1.1102681379   -0.9245308728
C       -0.8758392841   -0.6715012414   -1.6361944407
C       -1.3206032278   -0.0895630049   -0.3674663294
C       -0.7348461500    0.8096974977   -1.2703025344
N        0.7570117767    1.1602621136   -1.3039473733
H        2.4524267425    0.2191636752   -0.3895896415
H        0.6345726491   -2.1735945944   -0.9816209272
H       -0.9520657970   -0.2890996683   -2.6399579375
H       -2.3545850966    0.0466799467   -0.0704355177
H       -1.1787297399    1.6385928698   -1.8178907435
C        0.1614778207   -0.2579951950    0.2828821611
H        0.0568861693   -0.7714635323    1.3067655874
13   
From optimize.out: Frame 3 / 33, Energy=    -286.6854870044
C        1.3461532255    0.0668720649   -0.4181353110
C        0.5507328723   -1.1163553770   -0.9284524155
C       -0.8535997769   -0.6745658417   -1.6398586258
C       -1.2979769421   -0.0763221769   -0.3579573955
C       -0.7132688039    0.8396814426   -1.2819064139
N        0.7387066021    1.1731338228   -1.3039585822
H        2.4138818632    0.2316652684   -0.3903151409
H        0.6450214672   -2.1843313584   -0.9689466599
H       -0.9404995473   -0.3181612608   -2.6557229918
H       -2.3272945407    0.0630851909   -0.0443581754
H       -1.1748108666    1.6563571522   -1.8320150033
C        0.1407162588   -0.2864535539    0.3046200127
H        0.0673709291   -0.8033144348    1.3033194303
13   
From optimize.out: Frame 4 / 33, Energy=    -286.7170652046
C        1.3116744700    0.0745267547   -0.4347119412
C        0.5377945035   -1.1219347903   -0.9340665301
C       -0.8358781892   -0.6767518181   -1.6416628980
C       -1.2763200848   -0.0598796754   -0.3526638574
C       -0.6927161006    0.8698596539   -1.2936898881
N        0.7219771265    1.1832497615   -1.3001389000
H        2.3789464335    0.2413871799   -0.3857573371
H        0.6593648102   -2.1918318801   -0.9567649755
H       -0.9352990525   -0.3498316592   -2.6682778828
H       -2.3006138271    0.0831014920   -0.0231849908
H       -1.1757469966    1.6717712444   -1.8463502772
C        0.1231841448   -0.3148873911    0.3220002147
H        0.0787655031   -0.8374879342    1.3015819915
13   
From optimize.out: Frame 5 / 33, Energy=    -286.7416889334
C        1.2821211457    0.0832766946   -0.4501277775
C        0.5273667203   -1.1268708755   -0.9408979183
C       -0.8236016473   -0.6785398665   -1.6421346309
C       -1.2579589784   -0.0405720672   -0.3511484844
C       -0.6743624162    0.9005118017   -1.3050819377
N        0.7113349697    1.1943246302   -1.2938299583
H        2.3490859647    0.2461137971   -0.3735608273
H        0.6784170982   -2.1961354093   -0.9450854432
H       -0.9386993978   -0.3860542872   -2.6786857341
H       -2.2770626320    0.1055878709   -0.0059142584
H       -1.1819998147    1.6850089631   -1.8600293201
C        0.1093525858   -0.3429866569    0.3339599813
H        0.0911391430   -0.8723736573    1.2988490370
13   
From optimize.out: Frame 6 / 33, Energy=    -286.7605467556
C        1.2581268802    0.0928995658   -0.4634604586
C        0.5195813614   -1.1303571493   -0.9487187709
C       -0.8163483703   -0.6800522589   -1.6411809522
C       -1.2431794734   -0.0195031677   -0.3526298741
C       -0.6587152332    0.9308570700   -1.3157598551
N        0.7076506258    1.2075137205   -1.2860432483
H        2.3246320795    0.2432556631   -0.3529817639
H        0.7024831885   -2.1964659288   -0.9358095170
H       -0.9514036981   -0.4264435771   -2.6863008147
H       -2.2569853918    0.1286332379    0.0084146151
H       -1.1925842666    1.6954819565   -1.8731809448
C        0.0986271314   -0.3695465563    0.3402006347
H        0.1032479073   -0.9049816376    1.2937636779
13   
From optimize.out: Frame 7 / 33, Energy=    -286.7748796055
C        1.2390856454    0.1030944243   -0.4744899546
C        0.5141163325   -1.1320508530   -0.9571070276
C       -0.8128832901   -0.6812254623   -1.6389561328
C       -1.2313879900    0.0016820497   -0.3563263657
C       -0.6451358608    0.9599067714   -1.3252605531
N        0.7087841553    1.2224049190   -1.2775429020
H        2.3043083795    0.2318630181   -0.3255538526
H        0.7315163511   -2.1926116630   -0.9312913573
H       -0.9727559155   -0.4696127017   -2.6904464744
H       -2.2398976034    0.1502490946    0.0203551571
H       -1.2044159719    1.7032683216   -1.8857773132
C        0.0900176040   -0.3934110445    0.3413855830
H        0.1137809046   -0.9322659362    1.2873239211
13   
From optimize.out: Frame 8 / 33, Energy=    -286.7857080725
C        1.2241873162    0.1131710177   -0.4832499525
C        0.5104772520   -1.1323179889   -0.9653572263
C       -0.8119645054   -0.6819937281   -1.6358364452
C       -1.2220500868    0.0214292064   -0.3616648938
C       -0.6328040822    0.9869259304   -1.3332071136
N        0.7123826181    1.2379124957   -1.2684551241
H        2.2864947846    0.2132448020   -0.2940460037
H        0.7650290312   -2.1851262200   -0.9337327296
H       -1.0015108051   -0.5140786071   -2.6906738696
H       -2.2254346898    0.1692099805    0.0298414321
H       -1.2144549158    1.7091277964   -1.8978873773
C        0.0828459234   -0.4142033556    0.3389919041
H        0.1219349003   -0.9520103915    1.2815901274
13   
From optimize.out: Frame 9 / 33, Energy=    -286.7938333979
C        1.2128222098    0.1220044480   -0.4897745368
C        0.5079801974   -1.1319304246   -0.9727942926
C       -0.8124665278   -0.6824179470   -1.6322900436
C       -1.2148177576    0.0385317407   -0.3681839340
C       -0.6212325996    1.0114518441   -1.3392765156
N        0.7172623557    1.2528046219   -1.2584695687
H        2.2702075410    0.1907992146   -0.2616833638
H        0.8017005753   -2.1749932005   -0.9447787473
H       -1.0359429562   -0.5588238123   -2.6868142969
H       -2.2134683311    0.1850258597    0.0365636246
H       -1.2206443853    1.7141093553   -1.9094637751
C        0.0766396278   -0.4321593009    0.3346878274
H        0.1270927911   -0.9631114611    1.2785903504
13   
From optimize.out: Frame 10 / 33, Energy=    -286.7999184228
C        1.2044383831    0.1284464753   -0.4941467682
C        0.5059169335   -1.1317584440   -0.9789442177
C       -0.8133954787   -0.6825627638   -1.6288852182
C       -1.2093872320    0.0523077809   -0.3754600954
C       -0.6103206275    1.0333033928   -1.3432211706
N        0.7227612800    1.2659549418   -1.2473724723
H        2.2554213222    0.1686565820   -0.2314249948
H        0.8394249376   -2.1632926971   -0.9646329824
H       -1.0737355041   -0.6032037715   -2.6791757409
H       -2.2039167209    0.1976651081    0.0403395946
H       -1.2220435412    1.7193284089   -1.9201786356
C        0.0710464892   -0.4478022610    0.3298930444
H        0.1289224995   -0.9657518144    1.2795223852
13   
From optimize.out: Frame 11 / 33, Energy=    -286.8045105186
C        1.1983632516    0.1321087413   -0.4966626687
C        0.5037928356   -1.1323570083   -0.9836073240
C       -0.8139571256   -0.6824322045   -1.6261836724
C       -1.2053720064    0.0626295384   -0.3831110528
C       -0.6002309587    1.0526939363   -1.3449461682
N        0.7283878550    1.2768336208   -1.2355081265
H        2.2425181143    0.1492480468   -0.2050370474
H        0.8759501158   -2.1507781730   -0.9917347522
H       -1.1123267705   -0.6468799665   -2.6685229296
H       -2.1965730667    0.2071405322    0.0412964502
H       -1.2189571265    1.7257095550   -1.9294781701
C        0.0658584548   -0.4615622811    0.3254890166
H        0.1276791680   -0.9610633993    1.2843191731
13   
From optimize.out: Frame 12 / 33, Energy=    -286.8080125167
C        1.1938542452    0.1334951307   -0.4977086283
C        0.5014493368   -1.1338258922   -0.9868842817
C       -0.8136678653   -0.6819962086   -1.6245873304
C       -1.2023499755    0.0698502871   -0.3908461943
C       -0.5911768393    1.0701703366   -1.3445043735
N        0.7338188535    1.2855534276   -1.2235839005
H        2.2315859595    0.1326113734   -0.1829023488
H        0.9096860721   -2.1377367554   -1.0237885143
H       -1.1496574834   -0.6900937078   -2.6556740910
H       -2.1911504530    0.2134836109    0.0397237468
H       -1.2124052032    1.7339121109   -1.9368024449
C        0.0610192148   -0.4736361447    0.3218188643
H        0.1241268784   -0.9504966305    1.2920522245
13   
From optimize.out: Frame 13 / 33, Energy=    -286.8106843651
C        1.1902474875    0.1333682418   -0.4975322683
C        0.4989619407   -1.1360449266   -0.9891733291
C       -0.8123569430   -0.6812301093   -1.6243160149
C       -1.1999176215    0.0746782488   -0.3985163808
C       -0.5831946402    1.0864192388   -1.3420194757
N        0.7388997053    1.2924736270   -1.2121503078
H        2.2223850138    0.1179811277   -0.1646920244
H        0.9398154918   -2.1243004192   -1.0587142109
H       -1.1845713519   -0.7337238653   -2.6411283027
H       -2.1873615458    0.2169306162    0.0358107488
H       -1.2034073938    1.7444147491   -1.9416823750
C        0.0565400546   -0.4841271613    0.3188974243
H        0.1190925433   -0.9355484296    1.3015292445
13   
From optimize.out: Frame 14 / 33, Energy=    -286.8126848691
C        1.1870243651    0.1323374737   -0.4962553975
C        0.4964770166   -1.1388327020   -0.9910294784
C       -0.8100099452   -0.6801468869   -1.6254940436
C       -1.1976954616    0.0779353448   -0.4061671112
C       -0.5760995075    1.1021955864   -1.3376237963
N        0.7436354400    1.2980081566   -1.2015029456
H        2.2145983043    0.1047739249   -0.1499591384
H        0.9660924561   -2.1106770766   -1.0946600301
H       -1.2167641508   -0.7788636834   -2.6249267509
H       -2.1849493862    0.2178414680    0.0294685918
H       -1.1928007849    1.7575953864   -1.9437026852
C        0.0524158474   -0.4931093553    0.3165859593
H        0.1132085475   -0.9177666986    1.3115795542
13   
From optimize.out: Frame 15 / 33, Energy=    -286.8141193350
C        1.1837869053    0.1308603880   -0.4939915635
C        0.4941639412   -1.1419653461   -0.9930047911
C       -0.8066517709   -0.6789284923   -1.6281993357
C       -1.1953364480    0.0803542872   -0.4140494495
C       -0.5695539960    1.1183350940   -1.3313691923
N        0.7480958991    1.3025898550   -1.1918685611
H        2.2079317489    0.0926499485   -0.1383753225
H        0.9887579603   -2.0971508420   -1.1297569820
H       -1.2465983232   -0.8265305353   -2.6067081718
H       -2.1836976888    0.2166791082    0.0202585889
H       -1.1812502937    1.7738643071   -1.9424010438
C        0.0485920400   -0.5006197658    0.3146643563
H        0.1068927665   -0.8988470684    1.3211141960
13   
From optimize.out: Frame 16 / 33, Energy=    -286.8150871207
C        1.1802135378    0.1293266659   -0.4909549909
C        0.4922341663   -1.1451910198   -0.9956696961
C       -0.8023560828   -0.6781910163   -1.6324537611
C       -1.1924879223    0.0825854117   -0.4226447016
C       -0.5631189019    1.1359430299   -1.3230722128
N        0.7522773073    1.3067024619   -1.1834969742
H        2.2021051247    0.0815212679   -0.1298046748
H        1.0084147674   -2.0841247692   -1.1619440352
H       -1.2748235884   -0.8779001457   -2.5857135088
H       -2.1833797410    0.2141053944    0.0073645258
H       -1.1692491541    1.7939495317   -1.9371063639
C        0.0449596223   -0.5066542415    0.3127870210
H        0.1003436053   -0.8807816329    1.3290221006
13   
From optimize.out: Frame 17 / 33, Energy=    -286.8157532990
C        1.1759464820    0.1281380912   -0.4876789397
C        0.4908492710   -1.1483391360   -0.9996692327
C       -0.7973954942   -0.6794803114   -1.6380863909
C       -1.1887050487    0.0853302753   -0.4327137674
C       -0.5562419675    1.1567820446   -1.3120235029
N        0.7559510676    1.3109645621   -1.1767158740
H        2.1966915747    0.0714868702   -0.1243208090
H        1.0258658723   -2.0722390999   -1.1890506213
H       -1.3019242225   -0.9346806021   -2.5608942636
H       -2.1836149482    0.2110705817   -0.0103128964
H       -1.1571469219    1.8191836683   -1.9267405827
C        0.0413186530   -0.5111682254    0.3104143604
H        0.0935384232   -0.8657577807    1.3341052482
13   
From optimize.out: Frame 18 / 33, Energy=    -286.8164537288
C        1.1706307432    0.1275034556   -0.4851134307
C        0.4897274104   -1.1516601782   -1.0053783065
C       -0.7925648377   -0.6849804512   -1.6443554955
C       -1.1836410170    0.0893222808   -0.4448666941
C       -0.5485138661    1.1824893118   -1.2973864385
N        0.7586620403    1.3160533285   -1.1714912061
H        2.1909112221    0.0623636257   -0.1215994792
H        1.0418808344   -2.0619527750   -1.2109146343
H       -1.3267791102   -0.9981103911   -2.5318418878
H       -2.1836570924    0.2087668752   -0.0327340639
H       -1.1451807815    1.8503478031   -1.9108275233
C        0.0373563885   -0.5144167677    0.3069518265
H        0.0863008066   -0.8544351796    1.3358700611
13   
From optimize.out: Frame 19 / 33, Energy=    -286.8198568265
C        1.1713131984    0.1337487440   -0.4906052940
C        0.4913623477   -1.1610030672   -1.0087925100
C       -0.7993939374   -0.7476071090   -1.6472817730
C       -1.1814417202    0.0978313965   -0.4558953637
C       -0.5414974041    1.2194131358   -1.2749029233
N        0.7563672624    1.3369428684   -1.1584725173
H        2.1923505905    0.0721184343   -0.1289635070
H        1.0401249669   -2.0742790379   -1.2009850751
H       -1.3357978451   -1.0591567120   -2.5358124657
H       -2.1863149241    0.2269022077   -0.0559777862
H       -1.1380954525    1.8995789952   -1.8798402155
C        0.0355733212   -0.5102382870    0.2982384992
H        0.0905823370   -0.8629606309    1.3256036596
13   
From optimize.out: Frame 20 / 33, Energy=    -286.8236048051
C        1.1508725074    0.1325748690   -0.4982992605
C        0.4833185071   -1.1662042757   -1.0151967325
C       -0.7997227871   -0.7700164289   -1.6306496861
C       -1.1650739033    0.0996328434   -0.4778250782
C       -0.5302596747    1.2655876893   -1.2483491461
N        0.7354401059    1.3362243111   -1.1670560704
H        2.1729278301    0.0621743455   -0.1408561150
H        1.0494353889   -2.0763617333   -1.2020886466
H       -1.3209496451   -1.1225370032   -2.5092956753
H       -2.1703357175    0.2206196001   -0.0811416323
H       -1.1225396951    1.9522853942   -1.8444427226
C        0.0315386487   -0.5105541291    0.2899542261
H        0.0804811754   -0.8521345444    1.3115592674
13   
From optimize.out: Frame 21 / 33, Energy=    -286.8279535091
C        1.1457448477    0.1358864658   -0.5040909429
C        0.4820330202   -1.1738188970   -1.0192709602
C       -0.8062111704   -0.8239227038   -1.6219364112
C       -1.1572282773    0.1064422634   -0.4976588720
C       -0.5247805702    1.3058740584   -1.2244855893
N        0.7290751690    1.3523323420   -1.1587580097
H        2.1694708519    0.0657835544   -0.1515292566
H        1.0506675297   -2.0868169788   -1.1906681522
H       -1.3234943431   -1.1820167507   -2.5002756543
H       -2.1660028594    0.2302480460   -0.1105898804
H       -1.1148763326    2.0043346815   -1.8103928488
C        0.0300967088   -0.5052522143    0.2797440477
H        0.0806381665   -0.8577829288    1.2962252576
13   
From optimize.out: Frame 22 / 33, Energy=    -286.8328680989
C        1.1457147195    0.1351562321   -0.5055146178
C        0.4819570548   -1.1807267265   -1.0241565372
C       -0.8124310661   -0.8637398620   -1.6200149767
C       -1.1519776326    0.1137129731   -0.5267152992
C       -0.5287677549    1.3487688063   -1.1980619102
N        0.7446044410    1.3639481100   -1.1563020044
H        2.1697536614    0.0512748102   -0.1567129910
H        1.0653522928   -2.0868410197   -1.1856060139
H       -1.3422820440   -1.2518853015   -2.4778231319
H       -2.1671303342    0.2237032501   -0.1498961207
H       -1.1154958475    2.0635006953   -1.7698582501
C        0.0296225897   -0.4961056637    0.2697541959
H        0.0762126608   -0.8494753657    1.2872203851
13   
From optimize.out: Frame 23 / 33, Energy=    -286.8357357624
C        1.1449016988    0.1397305334   -0.5161061450
C        0.4829250112   -1.1926806790   -1.0268280740
C       -0.8274204512   -0.9139536422   -1.6234622750
C       -1.1524286789    0.1162258725   -0.5495981666
C       -0.5223781335    1.3699393221   -1.1715938816
N        0.7512129387    1.3682637390   -1.1601906487
H        2.1711094223    0.0634027452   -0.1719221064
H        1.0792681888   -2.0929184472   -1.1589199898
H       -1.3618647065   -1.2887017176   -2.4862393519
H       -2.1716240547    0.2150033641   -0.1734841595
H       -1.0983007398    2.1118123379   -1.7215235001
C        0.0301415082   -0.4851047991    0.2618909285
H        0.0695907375   -0.8397276911    1.2842900983
13   
From optimize.out: Frame 24 / 33, Energy=    -286.8370844118
C        1.1450005879    0.1350064049   -0.5281665345
C        0.4791644290   -1.2039086762   -1.0304188403
C       -0.8318989834   -0.9482505593   -1.6116324173
C       -1.1526475529    0.1260197316   -0.5725464541
C       -0.5285226386    1.3990511469   -1.1531050636
N        0.7544174960    1.3714182109   -1.1666782226
H        2.1742454598    0.0446419853   -0.1953263351
H        1.0917108169   -2.0946033832   -1.1390918139
H       -1.3507244063   -1.3255936139   -2.4834889256
H       -2.1730868717    0.1910164296   -0.1884371207
H       -1.0927497493    2.1687957572   -1.6776824970
C        0.0306474388   -0.4707705659    0.2534395916
H        0.0495767146   -0.8215319299    1.2794473611
13   
From optimize.out: Frame 25 / 33, Energy=    -286.8374456494
C        1.1474607369    0.1369566703   -0.5363403303
C        0.4782083281   -1.2077176255   -1.0254785076
C       -0.8393204564   -0.9650233931   -1.6045753713
C       -1.1575242930    0.1226849305   -0.5682217317
C       -0.5322899808    1.3922231541   -1.1564677910
N        0.7529516175    1.3674327001   -1.1793266168
H        2.1773048514    0.0493646829   -0.2049238949
H        1.0847974324   -2.1042970368   -1.1118788015
H       -1.3264722339   -1.2923500225   -2.5151752607
H       -2.1724102571    0.1943878760   -0.1704798755
H       -1.0996020176    2.1674228834   -1.6701638771
C        0.0330840739   -0.4659737374    0.2530249257
H        0.0489449392   -0.8238201442    1.2763198606
13   
From optimize.out: Frame 27 / 33, Energy=    -286.8379151194
C        1.1439084954    0.1338602317   -0.5412443890
C        0.4745625252   -1.2259442352   -1.0164130176
C       -0.8489286304   -0.9910636800   -1.5900584816
C       -1.1656270021    0.1169983661   -0.5833834073
C       -0.5317478709    1.3796303961   -1.1585642495
N        0.7524613596    1.3533146342   -1.1958771712
H        2.1799770246    0.0534574125   -0.2282776374
H        1.1119708237   -2.0994314488   -1.1073007130
H       -1.3153552298   -1.2631111141   -2.5330974276
H       -2.1718688576    0.1935583836   -0.1667186902
H       -1.0932607507    2.1814346916   -1.6354372208
C        0.0338883209   -0.4614363727    0.2551851621
H        0.0251525329   -0.7999763272    1.2874999712
13   
From optimize.out: Frame 28 / 33, Energy=    -286.8381931996
C        1.1438452371    0.1313621365   -0.5430728157
C        0.4685373848   -1.2266585529   -1.0089114805
C       -0.8471444812   -0.9875243180   -1.5846399549
C       -1.1634488782    0.1153253142   -0.5736966107
C       -0.5389207735    1.3760038542   -1.1677703548
N        0.7441753624    1.3564314987   -1.1914387994
H        2.1793492086    0.0417102076   -0.2306137437
H        1.0929149742   -2.1095788624   -1.1042507873
H       -1.2842351604   -1.2265887496   -2.5506918629
H       -2.1692710138    0.1933507370   -0.1558179228
H       -1.1103615781    2.1652117268   -1.6546926688
C        0.0376428330   -0.4605659404    0.2599416326
H        0.0420496258   -0.7971881135    1.2919680968
13   
From optimize.out: Frame 29 / 33, Energy=    -286.8382245391
C        1.1410921305    0.1301134414   -0.5458809431
C        0.4626609766   -1.2339412375   -1.0014525311
C       -0.8575243670   -0.9991697513   -1.5739698869
C       -1.1645292760    0.1121596831   -0.5712168900
C       -0.5419875041    1.3686411575   -1.1734613882
N        0.7392140823    1.3482473099   -1.2039450917
H        2.1790201715    0.0457179644   -0.2403578322
H        1.0884881961   -2.1165467040   -1.0931070892
H       -1.2538556052   -1.1831717752   -2.5702426083
H       -2.1664153645    0.1885771613   -0.1441233956
H       -1.1146084362    2.1611999686   -1.6528333631
C        0.0396165826   -0.4596990671    0.2616983089
H        0.0439611542   -0.7908372131    1.2952054385
13   
From optimize.out: Frame 30 / 33, Energy=    -286.8383108368
C        1.1397721561    0.1297080873   -0.5417840306
C        0.4619072767   -1.2344904627   -1.0017520620
C       -0.8537070574   -0.9922108095   -1.5789415419
C       -1.1614214978    0.1121196861   -0.5727089791
C       -0.5406831835    1.3700324431   -1.1710323040
N        0.7405691500    1.3503493301   -1.1971041622
H        2.1775039526    0.0417035473   -0.2364027593
H        1.0923128561   -2.1125432596   -1.1051200716
H       -1.2678735169   -1.1951662750   -2.5635577544
H       -2.1668142391    0.1862989430   -0.1529240628
H       -1.1126343572    2.1600504580   -1.6551930259
C        0.0391832081   -0.4615487880    0.2631468102
H        0.0470179931   -0.7830119622    1.2996866716
13   
From optimize.out: Frame 31 / 33, Energy=    -286.8383302494
C        1.1393590853    0.1287835603   -0.5407232236
C        0.4606763986   -1.2380949344   -1.0002721181
C       -0.8536193787   -0.9933184823   -1.5798745258
C       -1.1613165693    0.1114262818   -0.5724055557
C       -0.5427270589    1.3682390612   -1.1701253802
N        0.7402995082    1.3503209119   -1.1949611804
H        2.1779905974    0.0403874049   -0.2384425440
H        1.0953197808   -2.1120900671   -1.1083633869
H       -1.2671759043   -1.1919994738   -2.5659109450
H       -2.1675715841    0.1904037129   -0.1547531531
H       -1.1139289385    2.1582037000   -1.6554011767
C        0.0394506262   -0.4630947310    0.2640053220
H        0.0483761780   -0.7778760064    1.3035405955
13   
From optimize.out: Frame 32 / 33, Energy=    -286.8383360531
C        1.1387236206    0.1292486559   -0.5403792617
C        0.4590623895   -1.2395085249   -0.9987469159
C       -0.8542995373   -0.9937000384   -1.5795370873
C       -1.1607153683    0.1105296596   -0.5715600146
C       -0.5427962008    1.3677606872   -1.1695245126
N        0.7401724619    1.3494425977   -1.1966205145
H        2.1775445547    0.0382916663   -0.2395759626
H        1.0961524661   -2.1115894584   -1.1082651017
H       -1.2655763532   -1.1861083404   -2.5677963050
H       -2.1676680945    0.1875846486   -0.1551845441
H       -1.1142672221    2.1567908105   -1.6557982500
C        0.0395349681   -0.4633431898    0.2644867721
H        0.0492650561   -0.7741082358    1.3048144259
