13   
From qcopt_rct.out: Frame 3 / 3, Energy=    -286.8405126521
C        1.3127821609   -0.0975170434    0.0429889822
C        0.4495302049   -1.2278573684    0.4504356029
C       -0.8931772870   -1.1032169608    0.4863742998
C       -1.5384400085    0.1829397450    0.2617716063
C       -0.8213794854    1.2682334863   -0.0840785854
N        0.5726430580    1.2083824747   -0.3339975311
H        2.2245575760    0.0623983828    0.6240245080
H        0.9373115305   -2.1508125059    0.7561629190
H       -1.5108367987   -1.9468426359    0.7828363665
H       -2.5987864045    0.2871563109    0.4740187789
H       -1.2423038934    2.2696237481   -0.1135147157
C        1.1871834179    0.4348999364   -1.3192550327
H        1.9209159297    0.8126124300   -2.0277671992
13   
From qcopt_prd.out: Frame 2 / 2, Energy=    -286.8724112408
C        1.5597482980    0.3372353848   -0.5949813396
C        0.0169253052   -1.1649549335    0.6136854915
C       -1.3107036761   -1.1502841174    0.9593962750
C       -1.8659954740    0.0692270734    0.4606039029
C       -0.8587737674    0.7556738131   -0.1711392512
N        0.2981925637    0.0010668774   -0.0815306510
H        2.3168199182   -0.4251200649   -0.3924338334
H        0.7943434098   -1.8944130902    0.7918032295
H       -1.8311685702   -1.9245098279    1.5066740380
H       -2.8908705300    0.4012685040    0.5587950075
H       -0.8457121513    1.7085769372   -0.6786632748
C        1.8667197032    1.4349525124   -1.2571515203
H        2.7504749709    1.8512809318   -1.7150580742
