13   
From optimize.out: Frame 1 / 19, Energy=    -286.6872704480
C        1.6428181436    0.3991489287   -1.8668536130
C        0.8418079577   -0.9834857900   -1.5979227028
C       -0.6654803719   -0.6635489134   -2.0015152518
C       -1.2090620301    0.3376610132   -0.6230904287
C       -0.5947611059    0.7033358655   -2.0909901375
N        0.7795882116    1.2613601464   -2.1335915503
H        2.7288581113    0.5464875926   -2.0024586206
H        1.2007638005   -1.9950387697   -1.4857462450
H       -1.0425714605   -1.3168958210   -2.9147273412
H       -2.2348527826    0.6172977472   -0.4012814589
H       -1.4815305590    1.1283259972   -2.4866721737
C       -0.8073946607   -1.0578331373   -0.4330517138
H       -0.8693355228   -2.0605048323    0.0939814584
13   
From optimize.out: Frame 2 / 19, Energy=    -286.7353867425
C        1.5720549505    0.3646601611   -1.8473444754
C        0.8118730046   -0.9951936166   -1.5940457837
C       -0.6436632182   -0.6895251759   -2.0210315163
C       -1.1834153370    0.3481891923   -0.6242502937
C       -0.6047192133    0.7203544385   -2.0944817014
N        0.7433293864    1.2748671679   -2.1327321333
H        2.6572579519    0.4964788763   -1.9407403189
H        1.1836684665   -2.0023637697   -1.4665697350
H       -1.0158225809   -1.3444608263   -2.8987231251
H       -2.2068444813    0.6243137342   -0.3839690841
H       -1.4876010769    1.1698084140   -2.5008278587
C       -0.7455404711   -1.0356729770   -0.4793376906
H       -0.7917296499   -2.0151455917    0.0401339373
13   
From optimize.out: Frame 3 / 19, Energy=    -286.7706426730
C        1.5213613805    0.3322272775   -1.8257979331
C        0.7841913627   -0.9893563142   -1.5907696181
C       -0.6320201939   -0.7199635588   -2.0448927739
C       -1.1602291340    0.3646842250   -0.6195057821
C       -0.6207087800    0.7238360430   -2.0943245795
N        0.7148280321    1.2711468034   -2.1315278900
H        2.6064790697    0.4517077144   -1.8797036759
H        1.1758150325   -1.9872059661   -1.4517291563
H       -1.0015880717   -1.3740226677   -2.8905411236
H       -2.1772000118    0.6395503013   -0.3535844702
H       -1.4973140567    1.1897339626   -2.5122793902
C       -0.6929898153   -1.0122236456   -0.5341983217
H       -0.7317770828   -1.9738041477   -0.0150650645
13   
From optimize.out: Frame 4 / 19, Energy=    -286.7954532996
C        1.4845654639    0.3084957476   -1.8099966608
C        0.7681476599   -0.9895629980   -1.5908887028
C       -0.6265271886   -0.7558104535   -2.0752910835
C       -1.1393101304    0.3812401635   -0.6115602451
C       -0.6387214148    0.7215382378   -2.0901858991
N        0.6938917811    1.2675522468   -2.1280013772
H        2.5682998598    0.4277564584   -1.8239898076
H        1.1867502174   -1.9766757427   -1.4476743643
H       -0.9973922051   -1.4088216001   -2.8972406255
H       -2.1469821471    0.6585617880   -0.3164718428
H       -1.5044816470    1.2067726376   -2.5221412340
C       -0.6563346149   -0.9915117618   -0.5840697011
H       -0.7030579030   -1.9332246963   -0.0464082350
13   
From optimize.out: Frame 5 / 19, Energy=    -286.8124941304
C        1.4589197922    0.2952346721   -1.7996730227
C        0.7572046598   -0.9934162130   -1.5929673058
C       -0.6237023477   -0.7929276777   -2.1103554751
C       -1.1184370324    0.3937289962   -0.6021604238
C       -0.6563876798    0.7156391068   -2.0828803683
N        0.6775915113    1.2655344844   -2.1240882809
H        2.5402576792    0.4206738610   -1.7741288437
H        1.2028949996   -1.9700193144   -1.4527067473
H       -0.9985263425   -1.4435150198   -2.9156015566
H       -2.1148635349    0.6758730532   -0.2763395216
H       -1.5060751940    1.2205755740   -2.5342710379
C       -0.6323597244   -0.9773708465   -0.6247106232
H       -0.6976690553   -1.8937006492   -0.0540365720
13   
From optimize.out: Frame 6 / 19, Energy=    -286.8237701715
C        1.4412933931    0.2892102873   -1.7934945586
C        0.7471843350   -0.9981565772   -1.5914432994
C       -0.6212711156   -0.8258568793   -2.1451495955
C       -1.0997782994    0.4023186033   -0.5922827871
C       -0.6740337328    0.7097327688   -2.0733486485
N        0.6642962978    1.2637321341   -2.1205307239
H        2.5197094238    0.4220151877   -1.7316473035
H        1.2175856837   -1.9660431259   -1.4649743495
H       -1.0018059651   -1.4737501928   -2.9394289595
H       -2.0844642714    0.6886675201   -0.2363163050
H       -1.5018851266    1.2311109589   -2.5527138260
C       -0.6154190859   -0.9686864919   -0.6552610780
H       -0.7025638053   -1.8579841660   -0.0473283443
13   
From optimize.out: Frame 7 / 19, Energy=    -286.8305294524
C        1.4298871113    0.2877367497   -1.7897763548
C        0.7386591431   -1.0018769049   -1.5827225395
C       -0.6180489144   -0.8507559365   -2.1723793575
C       -1.0860402427    0.4088023102   -0.5827609231
C       -0.6907838024    0.7054224793   -2.0633155926
N        0.6539181489    1.2613748504   -2.1179298154
H        2.5054818290    0.4270862618   -1.6994921261
H        1.2316678490   -1.9631189494   -1.4881841580
H       -1.0064796076   -1.4969156243   -2.9586001878
H       -2.0601951274    0.6965289332   -0.2002108900
H       -1.4914406707    1.2372088190   -2.5793461490
C       -0.6023699441   -0.9639227374   -0.6728181036
H       -0.7154080408   -1.8312602239   -0.0363835816
13   
From optimize.out: Frame 8 / 19, Energy=    -286.8341495052
C        1.4229522591    0.2892643511   -1.7866653967
C        0.7324583204   -1.0046956932   -1.5700303234
C       -0.6145535728   -0.8672044516   -2.1900346916
C       -1.0766504221    0.4145347510   -0.5762152858
C       -0.7059749844    0.7024563607   -2.0562578798
N        0.6463377617    1.2586059820   -2.1170738060
H        2.4960805216    0.4347871291   -1.6747487954
H        1.2447887485   -1.9599711396   -1.5190093212
H       -1.0152465208   -1.5144611151   -2.9664815253
H       -2.0419277494    0.6988063162   -0.1696647063
H       -1.4761839651    1.2408435112   -2.6108699523
C       -0.5881651156   -0.9611849057   -0.6783560899
H       -0.7350675499   -1.8154710689   -0.0285120051
13   
From optimize.out: Frame 9 / 19, Energy=    -286.8358303470
C        1.4201483940    0.2926551611   -1.7857331147
C        0.7302949994   -1.0072087237   -1.5609299937
C       -0.6110977345   -0.8771642680   -2.2028562287
C       -1.0701763257    0.4188060096   -0.5748819171
C       -0.7208754989    0.6998315967   -2.0533725005
N        0.6406545042    1.2566242969   -2.1147157149
H        2.4910253903    0.4445960634   -1.6570323945
H        1.2571506615   -1.9564572131   -1.5425836025
H       -1.0305878715   -1.5294739166   -2.9634394761
H       -2.0271341068    0.6924311953   -0.1426578134
H       -1.4583158917    1.2471921179   -2.6417084635
C       -0.5697570470   -0.9598924009   -0.6778033792
H       -0.7624817422   -1.8056298914   -0.0262051800
13   
From optimize.out: Frame 10 / 19, Energy=    -286.8361417518
C        1.4185744676    0.2947951049   -1.7724838345
C        0.7333972535   -1.0143078400   -1.5549462204
C       -0.6094489874   -0.8783906150   -2.2018789887
C       -1.0737775546    0.4237615230   -0.5816346350
C       -0.7281359682    0.6966011905   -2.0580722513
N        0.6396189923    1.2532839448   -2.1095505133
H        2.4887400090    0.4504040568   -1.6400645038
H        1.2717087186   -1.9565155559   -1.5968634291
H       -1.0468158280   -1.5409066486   -2.9438875787
H       -2.0271328008    0.6859276075   -0.1348873183
H       -1.4431459215    1.2517398921   -2.6649417058
C       -0.5584752654   -0.9552186463   -0.6685883215
H       -0.7762593839   -1.7948639866   -0.0161204785
13   
From optimize.out: Frame 12 / 19, Energy=    -286.8364411558
C        1.4221379150    0.2971173139   -1.7833743681
C        0.7356935822   -1.0100244117   -1.5603826869
C       -0.6056337011   -0.8731365345   -2.2084377693
C       -1.0737168335    0.4197681449   -0.5855331176
C       -0.7328974567    0.6956090569   -2.0577718466
N        0.6387606559    1.2578338416   -2.1035297739
H        2.4918763111    0.4533923695   -1.6480589643
H        1.2686256254   -1.9561132958   -1.5661318718
H       -1.0576779817   -1.5406008134   -2.9361999275
H       -2.0224365631    0.6737347398   -0.1248691140
H       -1.4357417198    1.2575610216   -2.6720559293
C       -0.5546759736   -0.9602566282   -0.6734550916
H       -0.7854661289   -1.7985747774   -0.0241193180
13   
From optimize.out: Frame 14 / 19, Energy=    -286.8364832742
C        1.4218268327    0.2966221328   -1.7800921791
C        0.7338224653   -1.0094063715   -1.5582593631
C       -0.6051791349   -0.8693251268   -2.2074688953
C       -1.0775647462    0.4189399900   -0.5887237848
C       -0.7316982307    0.6947767910   -2.0594517670
N        0.6401026152    1.2576956278   -2.1026054670
H        2.4919765236    0.4513212787   -1.6462459038
H        1.2641320878   -1.9567716132   -1.5686718980
H       -1.0616916250   -1.5391453827   -2.9308712611
H       -2.0254827031    0.6740621456   -0.1271079660
H       -1.4349947868    1.2565307423   -2.6735016221
C       -0.5534298936   -0.9586224999   -0.6747963344
H       -0.7729716731   -1.8003676871   -0.0261233372
13   
From optimize.out: Frame 16 / 19, Energy=    -286.8364974482
C        1.4219213984    0.2977659819   -1.7786293965
C        0.7356300617   -1.0099187631   -1.5617796061
C       -0.6044276341   -0.8697015763   -2.2091163054
C       -1.0769070150    0.4184770702   -0.5895532051
C       -0.7325016604    0.6933199004   -2.0599292515
N        0.6394432652    1.2579221810   -2.1025749569
H        2.4917636140    0.4535752446   -1.6437076969
H        1.2661396375   -1.9572732431   -1.5665187458
H       -1.0659352877   -1.5394986308   -2.9289978798
H       -2.0221835855    0.6767168286   -0.1245846036
H       -1.4350854782    1.2553773558   -2.6746591108
C       -0.5533412733   -0.9592534415   -0.6756255990
H       -0.7756683114   -1.8011988806   -0.0282434214
13   
From optimize.out: Frame 17 / 19, Energy=    -286.8364998737
C        1.4217167710    0.2979900337   -1.7782420034
C        0.7354800787   -1.0097361985   -1.5613574061
C       -0.6038241183   -0.8697036013   -2.2094523717
C       -1.0771616642    0.4180539682   -0.5899277070
C       -0.7324025635    0.6928651936   -2.0602213967
N        0.6393069983    1.2581378282   -2.1023662101
H        2.4915434144    0.4538619394   -1.6433291812
H        1.2660853379   -1.9570092222   -1.5664763292
H       -1.0667439796   -1.5394687135   -2.9284861290
H       -2.0211508907    0.6782068923   -0.1235938827
H       -1.4349880471    1.2546121132   -2.6752677107
C       -0.5535784550   -0.9595180385   -0.6760354645
H       -0.7754351507   -1.8019821675   -0.0291639867
13   
From optimize.out: Frame 18 / 19, Energy=    -286.8365030210
C        1.4217198886    0.2980593796   -1.7779000439
C        0.7358950586   -1.0099010112   -1.5618270946
C       -0.6025655556   -0.8699557475   -2.2108475248
C       -1.0786787166    0.4171031762   -0.5909405087
C       -0.7328943105    0.6920227932   -2.0608438940
N        0.6388443946    1.2580400576   -2.1018103514
H        2.4912490692    0.4545340365   -1.6413071866
H        1.2668508323   -1.9569844046   -1.5654470201
H       -1.0687780568   -1.5394952620   -2.9278819885
H       -2.0189273023    0.6822381475   -0.1202801631
H       -1.4353892743    1.2533580405   -2.6764801598
C       -0.5541145674   -0.9595776585   -0.6771747295
H       -0.7743637287   -1.8031315200   -0.0311791141
