13   
From optimize.out: Frame 2 / 3, Energy=    -286.8249551859
C        1.3118553965    0.3025645483    0.2420680501
C        0.6068016140   -1.0007437408   -0.1830377253
C       -0.6883432701   -0.4654887350   -0.8439833543
C       -1.0780816294    0.1914248105    0.4506992150
C       -0.5189778790    1.0592796455   -0.6927874810
N        0.8291126319    1.4230372465   -0.4714120611
H        2.3483758206    0.2894064774    0.5607696643
H        1.1233254710   -1.9344691093   -0.3753888304
H       -1.2958121827   -0.9367535784   -1.6085309573
H       -2.0520569287    0.3366788924    0.9044507954
H       -1.1651298397    1.7418607690   -1.2337022453
C        0.2167204484   -0.3451412793    1.1120381956
H        0.3622103476   -0.6616559464    2.1388167342
13   
From optimize.out: Frame 1 / 3, Energy=    -286.8249527070
C        1.3423169915    0.2964996728    0.1734193544
C        0.6128550830   -0.9887993692   -0.1693675834
C       -0.6792100143   -0.4543025053   -0.8456278852
C       -1.0884188852    0.1905326506    0.4543997594
C       -0.5205615529    1.0577133741   -0.6800664720
N        0.8300618860    1.4211430491   -0.4421155701
H        2.3530037846    0.3072092688    0.5615715095
H        1.0813213554   -1.9476013900   -0.3704338035
H       -1.2632536055   -0.9509521907   -1.6097394475
H       -2.0755452328    0.3357061258    0.8769934659
H       -1.1633348085    1.7501287999   -1.2099302878
C        0.1641286659   -0.3922628090    1.1172032283
H        0.4066363329   -0.6250146767    2.1436937318
13   
From optimize.out: Frame 18 / 19, Energy=    -286.8249527070
C        1.3777272917    0.2960350655    0.1090856305
C        0.6162734345   -0.9815770999   -0.1617814248
C       -0.6739710648   -0.4547988620   -0.8741171087
C       -1.0999801406    0.1677352033    0.4498652028
C       -0.5261806931    1.0435144645   -0.6734503234
N        0.8403036838    1.4159509048   -0.4566132806
H        2.3441041037    0.3128667734    0.5971924388
H        1.0367806897   -1.9718340066   -0.3168241370
H       -1.2497937509   -0.9530639009   -1.6457551081
H       -2.0969466622    0.3233383262    0.8452203391
H       -1.1756481746    1.7829668617   -1.1267045449
C        0.1410803006   -0.4014104195    1.1193926761
H        0.4662509822   -0.5797233104    2.1344896402
13   
From optimize.out: Frame 16 / 19, Energy=    -286.8249299358
C        1.4022298923    0.2924006828    0.0734390911
C        0.6188953428   -0.9767405309   -0.1587479430
C       -0.6704518141   -0.4550374827   -0.9168263546
C       -1.1061525785    0.1405827444    0.4445609379
C       -0.5334444010    1.0259227916   -0.6720149791
N        0.8534622656    1.4099125331   -0.4838079694
H        2.3200196696    0.3072685771    0.6485291139
H        0.9911666200   -1.9933983902   -0.2604543222
H       -1.2527289530   -0.9445759430   -1.6926294081
H       -2.1090265257    0.2977067521    0.8249644807
H       -1.1872621589    1.8075761240   -1.0433540868
C        0.1426953967   -0.3816712284    1.1189130696
H        0.5305972442   -0.5299466297    2.1174283701
13   
From optimize.out: Frame 14 / 19, Energy=    -286.8245969484
C        1.4244024953    0.2881327943    0.0550762863
C        0.6219613423   -0.9713573171   -0.1552630138
C       -0.6726783938   -0.4541463027   -0.9739538356
C       -1.1115936388    0.1145734673    0.4447578404
C       -0.5417641829    1.0050546999   -0.6735796340
N        0.8746394932    1.4052082194   -0.5133411962
H        2.2943920710    0.2892766906    0.7009509949
H        0.9560003160   -2.0050619743   -0.2078234808
H       -1.2725717944   -0.9281422875   -1.7539938516
H       -2.1178714214    0.2632992199    0.8216108645
H       -1.1976846045    1.8182158838   -0.9719537530
C        0.1515598181   -0.3467703051    1.1229427264
H        0.5912084999   -0.4782827886    2.1045700526
13   
From optimize.out: Frame 12 / 19, Energy=    -286.8222658817
C        1.4487340446    0.2838803987    0.0505772425
C        0.6280041880   -0.9677530202   -0.1524952905
C       -0.6855498010   -0.4545529893   -1.0408522263
C       -1.1189461250    0.0937273225    0.4523744050
C       -0.5521928828    0.9834431841   -0.6794172274
N        0.9072976995    1.4049580287   -0.5379124947
H        2.2726062295    0.2643752198    0.7538158900
H        0.9374681320   -2.0102180144   -0.1669388204
H       -1.3088935416   -0.9111630905   -1.8307571917
H       -2.1261448442    0.2309217631    0.8355182701
H       -1.2109221601    1.8173836632   -0.9189052704
C        0.1615171030   -0.3093740685    1.1336345391
H        0.6470219582   -0.4256283972    2.1013581746
13   
From optimize.out: Frame 7 / 19, Energy=    -286.8033831382
C        1.4780398727    0.2809153361    0.0578802638
C        0.6376572635   -0.9675546022   -0.1506449828
C       -0.7085073324   -0.4575561588   -1.1094123155
C       -1.1293810220    0.0791442814    0.4634962413
C       -0.5649623058    0.9661355241   -0.6899386593
N        0.9490259886    1.4110342357   -0.5550948767
H        2.2579712002    0.2389960326    0.8068725753
H        0.9330796017   -2.0139634452   -0.1380098573
H       -1.3608886442   -0.9012951705   -1.9180069250
H       -2.1360349934    0.2058942799    0.8586754718
H       -1.2289493795    1.8124285442   -0.8842815013
C        0.1730027895   -0.2760097018    1.1501158809
H        0.6999469610   -0.3781691555    2.1083486849
13   
From optimize.out: Frame 5 / 19, Energy=    -286.7774195889
C        1.5121967827    0.2796292803    0.0724059571
C        0.6482187350   -0.9702167351   -0.1496543362
C       -0.7364388230   -0.4632962346   -1.1732075990
C       -1.1431104620    0.0675776636    0.4731522656
C       -0.5770396080    0.9556029186   -0.7028382529
N        0.9926409733    1.4211223742   -0.5654947551
H        2.2497813910    0.2171326319    0.8591848737
H        0.9343211009   -2.0189579313   -0.1171024421
H       -1.4247649282   -0.9013494939   -2.0095887544
H       -2.1498508631    0.1856177118    0.8808827136
H       -1.2478953577    1.8102744758   -0.8606555043
C        0.1875119272   -0.2474933159    1.1698034573
H        0.7544291319   -0.3356433453    2.1231123766
13   
From optimize.out: Frame 3 / 19, Energy=    -286.7271383926
C        1.5349358030    0.2843138220    0.0757553102
C        0.6491195132   -0.9735603432   -0.1554919340
C       -0.7560966347   -0.4516447347   -1.2378058111
C       -1.1525764615    0.0644842992    0.4771384092
C       -0.5779691925    0.9685999474   -0.7224717304
N        1.0338553850    1.4389600856   -0.5624874716
H        2.2156078571    0.1888272440    0.9010593016
H        0.9537210889   -2.0133999015   -0.1070353996
H       -1.4786733599   -0.9437095914   -2.0657958758
H       -2.1532103409    0.1794694292    0.9138329163
H       -1.2602329747    1.8138230450   -0.8539123835
C        0.1907723658   -0.2425362912    1.1886035453
H        0.8007469513   -0.3136270106    2.1486111234
13   
From optimize.out: Frame 1 / 19, Energy=    -286.6473065449
C        1.5215886262    0.2962204442    0.0530479117
C        0.6338250204   -0.9746414182   -0.1684003936
C       -0.7529082951   -0.4121938986   -1.2821138957
C       -1.1471777502    0.0778034265    0.4756436014
C       -0.5649369076    1.0089922083   -0.7437205280
N        1.0542393697    1.4612725045   -0.5433600840
H        2.1555554298    0.1591349871    0.9025146790
H        0.9977361917   -1.9911601413   -0.1148754817
H       -1.4743455402   -1.0275869705   -2.0254919541
H       -2.1288415229    0.2000561355    0.9595834715
H       -1.2588396543    1.8198279087   -0.8789206199
C        0.1682435695   -0.2789631175    1.1964566925
H        0.7958614630   -0.3387620687    2.1696366011
13   
C6H6N->C6H6N atoms 1-13 frame 194 charge +0.000 sz -1.000 sz^2 0.785
C        1.4994460389    0.3077264723    0.0266736136
C        0.6158055782   -0.9755967357   -0.1797612651
C       -0.7479416180   -0.3735303602   -1.3134651412
C       -1.1391178653    0.0922907606    0.4758700575
C       -0.5531563924    1.0480857353   -0.7608313658
N        1.0659256429    1.4799494657   -0.5225574454
H        2.1123288543    0.1379218964    0.8895472224
H        1.0434969528   -1.9707740499   -0.1276591174
H       -1.4467006037   -1.1027162693   -1.9544615164
H       -2.0979746580    0.2234564082    1.0038807109
H       -1.2567746843    1.8286828283   -0.9144042382
C        0.1420551662   -0.3226996227    1.2007477126
H        0.7626075884   -0.3727965290    2.1764207725
13   
C6H6N->C6H6N atoms 1-13 frame 197 charge -0.000 sz -1.000 sz^2 0.747
C        1.4748797654    0.3173628115    0.0005033414
C        0.5974995520   -0.9773717134   -0.1881186251
C       -0.7447083666   -0.3408054710   -1.3361816261
C       -1.1305782417    0.1049387818    0.4790861721
C       -0.5440557089    1.0814988737   -0.7743231039
N        1.0732300455    1.4942819754   -0.5020362358
H        2.0892630988    0.1252076072    0.8695384158
H        1.0879046620   -1.9543297916   -0.1429117791
H       -1.4065833353   -1.1638369553   -1.8689129687
H       -2.0650716332    0.2456196073    1.0445850531
H       -1.2581223640    1.8430986823   -0.9560692752
C        0.1158148621   -0.3686804219    1.2040967478
H        0.7105276637   -0.4069839861    2.1707438838
13   
C6H6N->C6H6N atoms 1-13 frame 199 charge -0.000 sz -1.000 sz^2 0.725
C        1.4493989562    0.3244503885   -0.0243716711
C        0.5799608192   -0.9802372792   -0.1929285669
C       -0.7424310199   -0.3155879199   -1.3502662573
C       -1.1215572608    0.1152390643    0.4852094660
C       -0.5373092014    1.1080624235   -0.7844305724
N        1.0764743712    1.5040587159   -0.4822290859
H        2.0841065117    0.1209668829    0.8428611897
H        1.1289856527   -1.9403321266   -0.1602545182
H       -1.3578041043   -1.2096935783   -1.7752117502
H       -2.0323442162    0.2664550745    1.0795452763
H       -1.2626047716    1.8626191967   -1.0019311285
C        0.0896955204   -0.4161741656    1.2066799176
H        0.6454287429   -0.4398266767    2.1573277008
13   
C6H6N->C6H6N atoms 1-13 frame 201 charge +0.000 sz -1.000 sz^2 0.713
C        1.4238356713    0.3288453457   -0.0474438903
C        0.5637608572   -0.9841737468   -0.1943453717
C       -0.7402289763   -0.2977736411   -1.3566716013
C       -1.1120425983    0.1232222952    0.4937889261
C       -0.5325958940    1.1282367850   -0.7918198606
N        1.0760230530    1.5099183493   -0.4629676338
H        2.0929808983    0.1247204296    0.8088036109
H        1.1655544805   -1.9262784809   -0.1798963494
H       -1.3037183582   -1.2412826283   -1.6783077787
H       -2.0017373706    0.2866233240    1.1078437387
H       -1.2678090175    1.8847242130   -1.0504014588
C        0.0630053878   -0.4653148799    1.2081416390
H        0.5729718668   -0.4714673648    2.1432760301
13   
C6H6N->C6H6N atoms 1-13 frame 203 charge -0.000 sz -1.000 sz^2 0.715
C        1.3985950915    0.3306370658   -0.0685500157
C        0.5492862631   -0.9889095694   -0.1928034624
C       -0.7371665464   -0.2866172386   -1.3563416897
C       -1.1019971677    0.1291427095    0.5042800267
C       -0.5297710456    1.1430548288   -0.7972049275
N        1.0719065393    1.5128157167   -0.4438030532
H        2.1124997283    0.1362907585    0.7657628153
H        1.1968164479   -1.9095811572   -0.2026446027
H       -1.2471411634   -1.2603774160   -1.5818478050
H       -1.9750869869    0.3072250646    1.1288713982
H       -1.2702694098    1.9061916718   -1.1002875568
C        0.0345362053   -0.5168473432    1.2075186310
H        0.4977920445   -0.5030250914    2.1370502418
13   
C6H6N->C6H6N atoms 1-13 frame 205 charge -0.000 sz -1.000 sz^2 0.724
C        1.3743386712    0.3300962176   -0.0874335028
C        0.5371832224   -0.9938511859   -0.1887889753
C       -0.7321803063   -0.2811431445   -1.3499567640
C       -1.0913847599    0.1333705043    0.5161290812
C       -0.5287157574    1.1535975048   -0.8011222200
N        1.0639952857    1.5138852642   -0.4243600448
H        2.1398072449    0.1555702595    0.7123539492
H        1.2220944715   -1.8881749110   -0.2292614462
H       -1.1915845880   -1.2696269802   -1.4896538919
H       -1.9542730939    0.3294839867    1.1420294095
H       -1.2663381859    1.9237228746   -1.1498918949
C        0.0034017159   -0.5711784303    1.2036601852
H        0.4236560798   -0.5357519597    2.1462961147
13   
C6H6N->C6H6N atoms 1-13 frame 207 charge -0.000 sz -1.000 sz^2 0.739
C        1.3523594906    0.3277752604   -0.1034742016
C        0.5285224018   -0.9980692190   -0.1825334663
C       -0.7241827189   -0.2802804596   -1.3378276380
C       -1.0801670495    0.1364521571    0.5290126488
C       -0.5291360291    1.1607828165   -0.8037320536
N        1.0523316182    1.5143646988   -0.4045407758
H        2.1723679460    0.1820580103    0.6487086258
H        1.2410783978   -1.8611891048   -0.2595563796
H       -1.1416825298   -1.2729544689   -1.4057805797
H       -1.9406873497    0.3544688518    1.1471269941
H       -1.2532666716    1.9345698601   -1.1965779449
C       -0.0301254677   -0.6275352385    1.1962273932
H        0.3525879619   -0.5704431644    2.1729473777
13   
C6H6N->C6H6N atoms 1-13 frame 212 charge +0.000 sz -1.000 sz^2 0.734
C        1.3342192697    0.3245346696   -0.1158447746
C        0.5245030674   -1.0004411215   -0.1737686028
C       -0.7121875582   -0.2830058086   -1.3198463291
C       -1.0682974602    0.1391884974    0.5430715279
C       -0.5305179895    1.1653350620   -0.8048683916
N        1.0371395490    1.5154445390   -0.3843860502
H        2.2082109833    0.2148413622    0.5764540580
H        1.2543389777   -1.8291755027   -0.2922265432
H       -1.1021147791   -1.2750194825   -1.3329599290
H       -1.9345268739    0.3831041528    1.1446245069
H       -1.2299639450    1.9371923752   -1.2376761076
C       -0.0648948644   -0.6843043413    1.1862261158
H        0.2840916232   -0.6076944016    2.2112005195
13   
C6H6N->C6H6N atoms 1-13 frame 214 charge +0.000 sz -1.000 sz^2 0.715
C        1.3212126191    0.3214320709   -0.1238112689
C        0.5260360711   -0.9998606083   -0.1618094042
C       -0.6954330738   -0.2885824618   -1.2956244000
C       -1.0558481212    0.1425465686    0.5587799003
C       -0.5322475845    1.1677156356   -0.8042944344
N        1.0186008250    1.5180506971   -0.3639771931
H        2.2460984718    0.2526858624    0.4979654966
H        1.2634929476   -1.7940706668   -0.3253657928
H       -1.0764047375   -1.2796178049   -1.2719310550
H       -1.9346503685    0.4160454505    1.1352900222
H       -1.1973042371    1.9316330782   -1.2716855772
C       -0.0997317224   -0.7397905570    1.1755997203
H        0.2161789105   -0.6481872645    2.2508639863
13   
C6H6N->C6H6N atoms 1-13 frame 216 charge +0.000 sz -1.000 sz^2 0.685
C        1.3142279878    0.3195676462   -0.1268455212
C        0.5335906309   -0.9954022099   -0.1458347020
C       -0.6734752880   -0.2968415522   -1.2647072759
C       -1.0431657837    0.1474248701    0.5766054313
C       -0.5337439058    1.1679268522   -0.8019022723
N        0.9967175757    1.5226433313   -0.3436013972
H        2.2852983688    0.2939639925    0.4158818360
H        1.2708328926   -1.7590510602   -0.3569150510
H       -1.0665927381   -1.2880511224   -1.2224497122
H       -1.9390194413    0.4532960826    1.1197411093
H       -1.1581341173    1.9194662571   -1.2987502076
C       -0.1338393552   -0.7924641858    1.1665160955
H        0.1473031735   -0.6924789015    2.2822616674
13   
C6H6N->C6H6N atoms 1-13 frame 218 charge +0.000 sz -1.000 sz^2 0.657
C        1.3137871043    0.3199671618   -0.1246824508
C        0.5471843248   -0.9864717886   -0.1251649221
C       -0.6462649531   -0.3082175284   -1.2267532472
C       -1.0308684841    0.1544548617    0.5967591965
C       -0.5344966852    1.1654462309   -0.7977677875
N        0.9713915330    1.5291117136   -0.3239079643
H        2.3252343076    0.3365968138    0.3328625892
H        1.2787032468   -1.7279924166   -0.3848353005
H       -1.0731178586   -1.2985921918   -1.1842332764
H       -1.9452027338    0.4939086508    1.0984536830
H       -1.1170050493    1.9035347429   -1.3206659912
C       -0.1667380651   -0.8409743915    1.1609272236
H        0.0773933129   -0.7407718584    2.2990082478
13   
C6H6N->C6H6N atoms 1-13 frame 220 charge -0.000 sz -1.000 sz^2 0.636
C        1.3200602267    0.3235100871   -0.1174479871
C        0.5664115933   -0.9729295522   -0.0995801409
C       -0.6141948010   -0.3234240376   -1.1817431192
C       -1.0196920178    0.1639073975    0.6190448311
C       -0.5340739273    1.1594438301   -0.7921447855
N        0.9426239923    1.5368162265   -0.3059063481
H        2.3651769624    0.3782174302    0.2513073596
H        1.2886074826   -1.7042939486   -0.4071401055
H       -1.0945947026   -1.3072303130   -1.1571897660
H       -1.9508922316    0.5360202068    1.0720930422
H       -1.0792495758    1.8871878951   -1.3403935207
C       -0.1981019640   -0.8842180063    1.1602402463
H        0.0079189629   -0.7930072156    2.2988602937
13   
C6H6N->C6H6N atoms 1-13 frame 223 charge +0.000 sz -1.000 sz^2 0.621
C        1.3328366095    0.3309083538   -0.1058678056
C        0.5904783674   -0.9551015969   -0.0696755628
C       -0.5781230372   -0.3428944296   -1.1302258147
C       -1.0103082675    0.1757326070    0.6427443068
C       -0.5321933990    1.1492582083   -0.7855093559
N        0.9106626602    1.5448056761   -0.2908601036
H        2.4040733999    0.4165551169    0.1729748117
H        1.3004133288   -1.6895373379   -0.4219965121
H       -1.1277848023   -1.3091512613   -1.1412873500
H       -1.9544715813    0.5772941207    1.0417301243
H       -1.0493291333    1.8727402532   -1.3607984333
C       -0.2277060394   -0.9214533442    1.1648810694
H       -0.0585481059   -0.8491563660    2.2838906257
13   
C6H6N->C6H6N atoms 1-13 frame 225 charge -0.000 sz -1.000 sz^2 0.627
C        1.3515797525    0.3427460076   -0.0913981201
C        0.6183400484   -0.9335993109   -0.0369709720
C       -0.5392408635   -0.3664068998   -1.0733308672
C       -1.0031901946    0.1897437129    0.6666544868
C       -0.5288019500    1.1347943985   -0.7786395033
N        0.8759165928    1.5521247413   -0.2801521818
H        2.4407220539    0.4499371028    0.0984756931
H        1.3123555521   -1.6829287628   -0.4280346398
H       -1.1680988436   -1.3000382518   -1.1363794854
H       -1.9554572780    0.6157188939    1.0086680811
H       -1.0293551730    1.8599519828   -1.3832187087
C       -0.2555615411   -0.9524326274    1.1739312677
H       -0.1192081558   -0.9096109873    2.2603949496
13   
C6H6N->C6H6N atoms 1-13 frame 227 charge +0.000 sz -1.000 sz^2 0.644
C        1.3756087755    0.3595285779   -0.0761665518
C        0.6488953873   -0.9091034871   -0.0037063235
C       -0.4989248518   -0.3931009124   -1.0125999614
C       -0.9985925454    0.2058045751    0.6892511955
C       -0.5240404293    1.1165301849   -0.7726185684
N        0.8388176792    1.5579909540   -0.2752489054
H        2.4741078653    0.4774849171    0.0271701525
H        1.3218307622   -1.6819760094   -0.4246069762
H       -1.2102728642   -1.2765755531   -1.1421305918
H       -1.9545680638    0.6501855278    0.9741344854
H       -1.0190745019    1.8459391820   -1.4069322907
C       -0.2819873845   -0.9773059385    1.1851741162
H       -0.1717998286   -0.9754020184    2.2382802196
13   
C6H6N->C6H6N atoms 1-13 frame 229 charge -0.000 sz -1.000 sz^2 0.671
C        1.4040305495    0.3814806686   -0.0628172093
C        0.6808786054   -0.8825101748    0.0273507296
C       -0.4590097324   -0.4214841125   -0.9502516293
C       -0.9966019147    0.2237696785    0.7088127630
C       -0.5181563045    1.0953933847   -0.7686909620
N        0.8001560301    1.5617574767   -0.2776243441
H        2.5034858457    0.4988324241   -0.0418111630
H        1.3262954636   -1.6836392509   -0.4118063359
H       -1.2485247125   -1.2368430637   -1.1577261862
H       -1.9534910014    0.6803471508    0.9395168723
H       -1.0170145489    1.8265941690   -1.4295013803
C       -0.3073080085   -0.9961808883    1.1956374102
H       -0.2147402714   -1.0475174622    2.2289114351
13   
C6H6N->C6H6N atoms 1-13 frame 231 charge +0.000 sz -1.000 sz^2 0.695
C        1.4354051881    0.4080229867   -0.0539240423
C        0.7126480842   -0.8552646042    0.0534877047
C       -0.4220590239   -0.4494254055   -0.8893409870
C       -0.9971112281    0.2432745353    0.7238560561
C       -0.5114535633    1.0726808205   -0.7677758856
N        0.7616071939    1.5629024235   -0.2881093019
H        2.5285393115    0.5139844581   -0.1081983866
H        1.3241281158   -1.6852636506   -0.3903859252
H       -1.2768314572   -1.1815021321   -1.1809215369
H       -1.9544266766    0.7063057016    0.9068698601
H       -1.0213665112    1.7985667973   -1.4475512247
C       -0.3315485973   -1.0089300280    1.2028599899
H       -0.2475308358   -1.1253519026    2.2391336793
13   
C6H6N->C6H6N atoms 1-13 frame 235 charge +0.000 sz -1.000 sz^2 0.692
C        1.4681163334    0.4377865604   -0.0508149314
C        0.7427867916   -0.8289404261    0.0734366381
C       -0.3904359545   -0.4749035410   -0.8322630895
C       -0.9998075704    0.2638946238    0.7340543979
C       -0.5041646872    1.0495414040   -0.7698047900
N        0.7251552966    1.5611901331   -0.3060720083
H        2.5500603701    0.5236448393   -0.1710053833
H        1.3153649963   -1.6854072492   -0.3614387454
H       -1.2906952018   -1.1140305114   -1.2079081299
H       -1.9592456998    0.7287797984    0.8783672019
H       -1.0304199889    1.7606209378   -1.4581793665
C       -0.3548616793   -1.0157683060    1.2063207946
H       -0.2718530062   -1.2064082631    2.2653074117
13   
C6H6N->C6H6N atoms 1-13 frame 238 charge -0.000 sz -1.000 sz^2 0.632
C        1.5011859254    0.4693908715   -0.0534420696
C        0.7707363998   -0.8045667061    0.0875729710
C       -0.3655454798   -0.4966372304   -0.7796195660
C       -1.0044130572    0.2855244445    0.7402157131
C       -0.4963088093    1.0264543585   -0.7738161081
N        0.6922582312    1.5566316553   -0.3299341002
H        2.5699826901    0.5290135221   -0.2297221416
H        1.3013293033   -1.6841569620   -0.3257412615
H       -1.2879052205   -1.0386020185   -1.2349841309
H       -1.9689326356    0.7489161637    0.8555344930
H       -1.0432551484    1.7131824744   -1.4596900416
C       -0.3780037045   -1.0174152275    1.2071001636
H       -0.2911284945   -1.2877353455    2.2965260788
13   
C6H6N->C6H6N atoms 1-13 frame 240 charge -0.000 sz -1.000 sz^2 0.577
C        1.5343075550    0.5017279920   -0.0612123779
C        0.7965233665   -0.7826905717    0.0968133122
C       -0.3483383742   -0.5136778536   -0.7310531959
C       -1.0108567085    0.3084073475    0.7435073444
C       -0.4877297317    1.0034507781   -0.7784358355
N        0.6641725338    1.5493888297   -0.3579834254
H        2.5906951180    0.5313293542   -0.2842507852
H        1.2840170097   -1.6829864892   -0.2837574862
H       -1.2675728351   -0.9591308748   -1.2596065061
H       -1.9835436687    0.7677776503    0.8394817000
H       -1.0602203881    1.6577121304   -1.4513203602
C       -0.4022105776   -1.0146500186    1.2065070097
H       -0.3092432990   -1.3666582744    2.3213106060
13   
C6H6N->C6H6N atoms 1-13 frame 242 charge +0.000 sz -1.000 sz^2 0.527
C        1.5674809576    0.5336670123   -0.0734276715
C        0.8203030494   -0.7637193481    0.1018762999
C       -0.3398315756   -0.5248157349   -0.6862704410
C       -1.0191700727    0.3329675892    0.7451074400
C       -0.4781928462    0.9806023602   -0.7819872263
N        0.6427443265    1.5398846699   -0.3884231402
H        2.6144362105    0.5318348460   -0.3341632224
H        1.2660727483   -1.6846781791   -0.2361252871
H       -1.2298319836   -0.8803586554   -1.2805311122
H       -2.0021207110    0.7861291868    0.8314224319
H       -1.0830002234    1.5970108292   -1.4330886833
C       -0.4288575606   -1.0080173543    1.2053730772
H       -0.3300323190   -1.4405072218    2.3302375351
13   
C6H6N->C6H6N atoms 1-13 frame 244 charge -0.000 sz -1.000 sz^2 0.587
C        1.6008234752    0.5637518094   -0.0892010599
C        0.8422463016   -0.7481043670    0.1031652965
C       -0.3408716985   -0.5284882987   -0.6452689003
C       -1.0292137642    0.3596206032    0.7463317915
C       -0.4674655580    0.9583246428   -0.7823716247
N        0.6308409987    1.5289717913   -0.4190877162
H        2.6427875910    0.5320281451   -0.3780651860
H        1.2507357304   -1.6928811948   -0.1839396128
H       -1.1770655530   -0.8092179568   -1.2983759161
H       -2.0225092075    0.8044146450    0.8327768895
H       -1.1141447560    1.5355858131   -1.4058034850
C       -0.4590805057   -0.9978567345    1.2040240735
H       -0.3570830539   -1.5061488981    2.3158154500
13   
C6H6N->C6H6N atoms 1-13 frame 246 charge +0.000 sz -1.000 sz^2 0.642
C        1.6342378035    0.5899965447   -0.1072508612
C        0.8625035677   -0.7364750736    0.1008757807
C       -0.3513324340   -0.5233392535   -0.6082617528
C       -1.0403563260    0.3883959001    0.7487874144
C       -0.4555928241    0.9375950984   -0.7772380579
N        0.6320247008    1.5179264749   -0.4473163307
H        2.6759796359    0.5338840161   -0.4132174115
H        1.2410408985   -1.7102578669   -0.1290517317
H       -1.1159141522   -0.7554289887   -1.3164565398
H       -2.0414959337    0.8225510144    0.8446058911
H       -1.1550492536    1.4791835189   -1.3706389516
C       -0.4931339359   -0.9845858565    1.2024134988
H       -0.3929117469   -1.5594455284    2.2727490523
13   
From optimize.out: Frame 1 / 24, Energy=    -286.6359586858
C        1.6667036982    0.6100116655   -0.1259137805
C        0.8809829756   -0.7296181003    0.0952805299
C       -0.3693304203   -0.5095626454   -0.5756223255
C       -1.0513681662    0.4184785585    0.7542395632
C       -0.4434436361    0.9200664910   -0.7648591359
N        0.6488568755    1.5080631085   -0.4704748576
H        2.7121416185    0.5396644213   -0.4362307127
H        1.2383271239   -1.7354918718   -0.0746504112
H       -1.0574522124   -0.7295920045   -1.3397912244
H       -2.0559027436    0.8396038776    0.8662540769
H       -1.2024685175    1.4331923519   -1.3286157727
C       -0.5296305351   -0.9690021981    1.2001717660
H       -0.4374160605   -1.5958136542    2.2002122844
13   
From optimize.out: Frame 4 / 24, Energy=    -286.7306690275
C        1.6964171893    0.6223396415   -0.1440093113
C        0.8973491591   -0.7277938999    0.0868907762
C       -0.3916165065   -0.4900039428   -0.5476437571
C       -1.0610487861    0.4484545443    0.7637418302
C       -0.4326701065    0.9074517189   -0.7455615177
N        0.6801757810    1.5000088714   -0.4877912944
H        2.7478427740    0.5508969954   -0.4461159307
H        1.2411965814   -1.7625535196   -0.0247009585
H       -1.0110536455   -0.7364815326   -1.3701667855
H       -2.0648739055    0.8543767344    0.8944492314
H       -1.2481079489    1.3998505619   -1.2810084129
C       -0.5659807496   -0.9518245527    1.1964815251
H       -0.4876298361   -1.6147216202    2.1054346053
13   
From optimize.out: Frame 6 / 24, Energy=    -286.7729725424
C        1.6915152556    0.6071869720   -0.1599091654
C        0.9016403784   -0.7335142777    0.0700368196
C       -0.4127384567   -0.4864342078   -0.5384578698
C       -1.0695957074    0.4623954119    0.7735012135
C       -0.4244226353    0.9157192932   -0.7207975707
N        0.7368210218    1.5047704308   -0.4975960045
H        2.7504120922    0.5570337145   -0.4248627268
H        1.2506862034   -1.7751928092    0.0061524388
H       -0.9959975849   -0.7912429347   -1.3949632758
H       -2.0757332658    0.8467100527    0.9214513201
H       -1.2631931855    1.4089229066   -1.2322078452
C       -0.5810753327   -0.9220946433    1.1741868991
H       -0.5083187829   -1.5942599088    2.0234657671
13   
From optimize.out: Frame 8 / 24, Energy=    -286.8036692716
C        1.6566812282    0.5640671472   -0.1568744843
C        0.8937480550   -0.7428196140    0.0511098758
C       -0.4261075922   -0.5060104209   -0.5530585067
C       -1.0760687439    0.4700131604    0.7768941683
C       -0.4313294942    0.9326847598   -0.6926710241
N        0.7890292548    1.5007841349   -0.4937502137
H        2.7253758667    0.5566943348   -0.3636161448
H        1.2666744093   -1.7695034063    0.0101326537
H       -1.0079316892   -0.8621971736   -1.4010553583
H       -2.0863974382    0.8363149749    0.9390198801
H       -1.2537650513    1.4459465591   -1.1947578147
C       -0.5669505601   -0.8815109042    1.1157520226
H       -0.4829582450   -1.5444635520    1.9628749461
13   
From optimize.out: Frame 10 / 24, Energy=    -286.8213669782
C        1.6295531012    0.5272377700   -0.1480602946
C        0.8857539734   -0.7537838586    0.0359102115
C       -0.4343352362   -0.5327497227   -0.5696407902
C       -1.0824154826    0.4928725290    0.7829522560
C       -0.4459870179    0.9433239726   -0.6596683414
N        0.8244103447    1.4928337230   -0.4830556243
H        2.7063698463    0.5592026310   -0.2950930523
H        1.2805679763   -1.7669113684    0.0118489622
H       -1.0123202685   -0.9346020699   -1.4050292902
H       -2.0935286936    0.8474532425    0.9606820326
H       -1.2483048268    1.4753577545   -1.1618503015
C       -0.5523026609   -0.8439272863    1.0430048782
H       -0.4574610554   -1.5063073166    1.8879993539
13   
From optimize.out: Frame 14 / 24, Energy=    -286.8350894723
C        1.6121474621    0.5007806937   -0.1418546292
C        0.8791751849   -0.7668164166    0.0192383727
C       -0.4380454536   -0.5638210304   -0.5906960902
C       -1.0863768462    0.5272824855    0.7972088430
C       -0.4653088351    0.9475546552   -0.6239644328
N        0.8478506097    1.4852094191   -0.4700814323
H        2.6936493976    0.5634642411   -0.2268820406
H        1.2918533915   -1.7697298815    0.0113673640
H       -1.0030435215   -1.0095210951   -1.4167237945
H       -2.0934697981    0.8765594844    0.9982453711
H       -1.2481239148    1.4960705136   -1.1326935056
C       -0.5445875870   -0.8079391059    0.9699837062
H       -0.4457200897   -1.4790939632    1.8068522683
13   
From optimize.out: Frame 17 / 24, Energy=    -286.8363609249
C        1.5997354285    0.4814917234   -0.1426750547
C        0.8727837584   -0.7808610094   -0.0015614608
C       -0.4414115454   -0.5939287012   -0.6204387844
C       -1.0819963961    0.5664323584    0.8197628003
C       -0.4875802097    0.9494054818   -0.5879326130
N        0.8622222304    1.4794479740   -0.4656727000
H        2.6829338535    0.5689044611   -0.1537983295
H        1.3031555095   -1.7747299010    0.0101415354
H       -0.9876433839   -1.0836622947   -1.4349775350
H       -2.0826801493    0.9103595871    1.0538170709
H       -1.2485980050    1.5128785898   -1.1128633370
C       -0.5415101080   -0.7727469408    0.9064454025
H       -0.4494109830   -1.4629913286    1.7297530052
13   
From optimize.out: Frame 19 / 24, Energy=    -286.8364444846
C        1.5891087978    0.4729971946   -0.1536048955
C        0.8644889922   -0.7909094632   -0.0211313704
C       -0.4488294431   -0.6150541348   -0.6544153128
C       -1.0597500541    0.6055768892    0.8510925525
C       -0.5088595245    0.9539498304   -0.5571964353
N        0.8665257647    1.4783832481   -0.4786688277
H        2.6686961670    0.5772224125   -0.0783728414
H        1.3150740669   -1.7748735133    0.0143386010
H       -0.9754183387   -1.1516233741   -1.4489122490
H       -2.0550390525    0.9338638849    1.1262804708
H       -1.2410136309    1.5266854884   -1.1159623856
C       -0.5364410918   -0.7435215797    0.8607284837
H       -0.4785426530   -1.4726968832    1.6558242098
13   
From optimize.out: Frame 21 / 24, Energy=    -286.8364809610
C        1.5821168839    0.4748372478   -0.1701820414
C        0.8554595256   -0.7943554789   -0.0292473847
C       -0.4583121351   -0.6235905184   -0.6809795187
C       -1.0218558521    0.6403002231    0.8843555760
C       -0.5257993637    0.9614042971   -0.5384917686
N        0.8621333704    1.4800575464   -0.5002030887
H        2.6543661602    0.5880436835   -0.0226535480
H        1.3260050729   -1.7688026998    0.0221598821
H       -0.9659132517   -1.2099935226   -1.4476828492
H       -2.0142948023    0.9402915026    1.2016404124
H       -1.2264186930    1.5393539345   -1.1352395729
C       -0.5205350533   -0.7229825755    0.8344826899
H       -0.5469518618   -1.5045636399    1.5820412118
13   
From optimize.out: Frame 23 / 24, Energy=    -286.8364925738
C        1.5804533810    0.4811547329   -0.1831814636
C        0.8485903558   -0.7957007745   -0.0200386860
C       -0.4658551747   -0.6195051936   -0.6940816287
C       -0.9803613812    0.6664616411    0.9096564213
C       -0.5381546201    0.9664876393   -0.5329423598
N        0.8528233646    1.4789814224   -0.5193873715
H        2.6477818683    0.6001306364   -0.0020376863
H        1.3359696698   -1.7636650488    0.0182684182
H       -0.9524745722   -1.2541429819   -1.4313556674
H       -1.9693111305    0.9326297366    1.2680259380
H       -1.2134468229    1.5518639605   -1.1541183903
C       -0.4884766334   -0.7115691641    0.8291930684
H       -0.6575383045   -1.5331266064    1.5119994077
13   
From optimize.out: Frame 1 / 2, Energy=    -286.8364672944
C        1.5760032086    0.4907371161   -0.1800286475
C        0.8451774152   -0.7986862903   -0.0034036254
C       -0.4632148507   -0.6151172297   -0.7009119622
C       -0.9624493212    0.6740916191    0.9121032665
C       -0.5545319747    0.9502471302   -0.5408531976
N        0.8334671192    1.4757489118   -0.5242110084
H        2.6434292726    0.6151226340   -0.0006015000
H        1.3464904271   -1.7618108841    0.0060231859
H       -0.9179475460   -1.2629878096   -1.4447232441
H       -1.9033628835    0.9727973629    1.3602304171
H       -1.2164994495    1.5364855537   -1.1779908331
C       -0.4782360189   -0.7177882781    0.8321180994
H       -0.7483253983   -1.5588398360    1.4622490495
