13   
From optimize.out: Frame 18 / 19, Energy=    -286.8249527070
C        1.3116773640    0.3021187270    0.2418766374
C        0.6063531285   -1.0013814904   -0.1826491112
C       -0.6883734870   -0.4653182002   -0.8441101649
C       -1.0783348807    0.1911144244    0.4506308061
C       -0.5190601939    1.0594221419   -0.6922625839
N        0.8285955267    1.4230484224   -0.4701668594
H        2.3487411746    0.2882882274    0.5586868321
H        1.1246429836   -1.9340476491   -0.3756521238
H       -1.2953207028   -0.9361550870   -1.6091301402
H       -2.0522388892    0.3363185857    0.9045795284
H       -1.1647864011    1.7417840696   -1.2338818909
C        0.2166845206   -0.3454429348    1.1122562639
H        0.3614198570   -0.6597492366    2.1398228063
13   
From optimize.out: Frame 16 / 19, Energy=    -286.8249299358
C        1.3197925789    0.2952450872    0.2156688040
C        0.6108970750   -0.9940998074   -0.1758974597
C       -0.6820505363   -0.4545950909   -0.8345543550
C       -1.0803718900    0.2000890447    0.4556198458
C       -0.5182847223    1.0639543263   -0.6853766686
N        0.8248171771    1.4233380312   -0.4394967053
H        2.3506936025    0.3022205780    0.5511787072
H        1.1018198726   -1.9366889103   -0.3967110005
H       -1.2739390211   -0.9472193211   -1.5940554157
H       -2.0610914757    0.3389358715    0.8952982893
H       -1.1573445330    1.7327678221   -1.2499030204
C        0.1853970005   -0.3785612506    1.1140398391
H        0.3796648718   -0.6453863808    2.1441891398
13   
From optimize.out: Frame 14 / 19, Energy=    -286.8245969484
C        1.3640106521    0.2977197175    0.1327234570
C        0.6147494466   -0.9836889447   -0.1630758544
C       -0.6764696516   -0.4540276574   -0.8562940002
C       -1.0961718611    0.1813191900    0.4532235942
C       -0.5227630625    1.0516964403   -0.6749534716
N        0.8351021877    1.4190350160   -0.4446399089
H        2.3552261371    0.3120350750    0.5715831401
H        1.0615930122   -1.9581043396   -0.3451189241
H       -1.2529521547   -0.9545608458   -1.6248461445
H       -2.0894709523    0.3325791290    0.8593598696
H       -1.1691187373    1.7668398661   -1.1714305439
C        0.1436449162   -0.4054576049    1.1202510678
H        0.4326200675   -0.6053850416    2.1432177189
13   
From optimize.out: Frame 12 / 19, Energy=    -286.8222658817
C        1.3909871945    0.2944315493    0.0862252483
C        0.6177655813   -0.9795224905   -0.1605340984
C       -0.6715470210   -0.4555538191   -0.8913549202
C       -1.1036657306    0.1545756470    0.4466190452
C       -0.5295061783    1.0355944147   -0.6719919945
N        0.8453069322    1.4129859836   -0.4681879988
H        2.3333427159    0.3137126845    0.6219579661
H        1.0128215918   -1.9850914688   -0.2894692362
H       -1.2467230328   -0.9516331011   -1.6659786087
H       -2.1041815623    0.3143587539    0.8315494269
H       -1.1819976363    1.7985453237   -1.0834417216
C        0.1386087610   -0.3974981765    1.1185608105
H        0.4987883846   -0.5549053006    2.1260460814
13   
From optimize.out: Frame 9 / 19, Energy=    -286.8145446746
C        1.4133180599    0.2904385630    0.0608240980
C        0.6200408956   -0.9739727534   -0.1570004554
C       -0.6693559840   -0.4545334130   -0.9419762104
C       -1.1086118421    0.1267292335    0.4425308889
C       -0.5373630005    1.0163707161   -0.6720212930
N        0.8614687174    1.4069134210   -0.4992021896
H        2.3068589821    0.3009689344    0.6747631133
H        0.9698538292   -2.0015631578   -0.2318468276
H       -1.2586266971   -0.9376210500   -1.7189517628
H       -2.1138185174    0.2811911965    0.8184680117
H       -1.1925140730    1.8164700343   -1.0037561519
C        0.1467401489   -0.3660629083    1.1192547348
H        0.5620094810   -0.5053288162    2.1089140439
13   
From optimize.out: Frame 7 / 19, Energy=    -286.8033831382
C        1.4355475649    0.2858713415    0.0493078537
C        0.6239371032   -0.9686926749   -0.1535429224
C       -0.6759978014   -0.4537529262   -1.0061617027
C       -1.1146024528    0.1022746820    0.4469971145
C       -0.5462339462    0.9936629171   -0.6751179714
N        0.8878397816    1.4035466323   -0.5275221927
H        2.2818264174    0.2775822189    0.7273340751
H        0.9421425245   -2.0085362012   -0.1837027401
H       -1.2865595171   -0.9185970575   -1.7893054310
H       -2.1219668557    0.2451704667    0.8247714712
H       -1.2029623381    1.8199537214   -0.9398871944
C        0.1564200039   -0.3273809230    1.1266446101
H        0.6206095159   -0.4511021971    2.1001850301
13   
From optimize.out: Frame 5 / 19, Energy=    -286.7774195889
C        1.4623054220    0.2819056762    0.0519205564
C        0.6322501673   -0.9667421768   -0.1514588068
C       -0.6953528622   -0.4553589986   -1.0766319774
C       -1.1234333283    0.0848343072    0.4579046738
C       -0.5583775311    0.9729186139   -0.6838024746
N        0.9272780329    1.4064910944   -0.5485310654
H        2.2630805369    0.2508503950    0.7811487871
H        0.9327639927   -2.0118908637   -0.1497594594
H       -1.3318315119   -0.9034765050   -1.8735369067
H       -2.1304741504    0.2160781844    0.8465747161
H       -1.2192111432    1.8147178944   -0.8972046898
C        0.1667703837   -0.2908712230    1.1408230275
H        0.6742319915   -0.3994563982    2.1025536190
13   
From optimize.out: Frame 3 / 19, Energy=    -286.7271383926
C        1.4946951307    0.2799592745    0.0642544097
C        0.6434554887   -0.9683620496   -0.1498393334
C       -0.7223902481   -0.4598478837   -1.1442050061
C       -1.1357011686    0.0730043041    0.4693998628
C       -0.5719875088    0.9589613430   -0.6963833133
N        0.9719948672    1.4159537870   -0.5619212280
H        2.2525203061    0.2265212862    0.8342086919
H        0.9335507723   -2.0160879392   -0.1256858708
H       -1.3915755780   -0.8989289073   -1.9652379915
H       -2.1419634134    0.1948952830    0.8714618982
H       -1.2393679229    1.8099872578   -0.8704799659
C        0.1795973382   -0.2603346101    1.1599481736
H        0.7271719366   -0.3557211457    2.1144796726
13   
From optimize.out: Frame 1 / 19, Energy=    -286.6473065449
C        1.5313151191    0.2793784002    0.0814054010
C        0.6535093088   -0.9721806466   -0.1495216748
C       -0.7517248860   -0.4670112020   -1.2050020915
C       -1.1512373702    0.0615078421    0.4772203305
C       -0.5826131371    0.9519529506   -0.7098275849
N        1.0151340790    1.4269072935   -0.5692286738
H        2.2467366993    0.2069543808    0.8866077853
H        0.9353242717   -2.0220134580   -0.1078746806
H       -1.4609213593   -0.9039126303   -2.0582387289
H       -2.1585251157    0.1752184308    0.8911245398
H       -1.2573304922    1.8105751427   -0.8497812715
C        0.1961440589   -0.2335466480    1.1805660712
H        0.7841888236   -0.3138298557    2.1325505783
13   
C6H6N->C6H6N atoms 1-13 frame 194 charge +0.000 sz -1.000 sz^2 0.785
C        1.5365802010    0.2866736050    0.0732357140
C        0.6471675811   -0.9741416358   -0.1582917277
C       -0.7580335993   -0.4445266543   -1.2529543338
C       -1.1532136483    0.0657425469    0.4770639803
C       -0.5758681322    0.9762767586   -0.7282295955
N        1.0423946012    1.4446124908   -0.5592346132
H        2.2012485493    0.1805581153    0.9078004489
H        0.9623110578   -2.0093705037   -0.1067758926
H       -1.4867022408   -0.9619376951   -2.0694005357
H       -2.1508108837    0.1812160212    0.9242115058
H       -1.2616503793    1.8153059375   -0.8557127018
C        0.1882741566   -0.2467534405    1.1922870823
H        0.8083027366   -0.3136555460    2.1560006690
13   
C6H6N->C6H6N atoms 1-13 frame 197 charge -0.000 sz -1.000 sz^2 0.747
C        1.5172571112    0.2990545927    0.0473230180
C        0.6300535891   -0.9747340584   -0.1713557556
C       -0.7513596175   -0.4028453629   -1.2905598208
C       -1.1454650152    0.0811668229    0.4751965322
C       -0.5618257532    1.0184220662   -0.7481221725
N        1.0575779743    1.4661684245   -0.5386448711
H        2.1423698592    0.1530375520    0.9010897502
H        1.0080496937   -1.9858537015   -0.1173147193
H       -1.4706509755   -1.0464057656   -2.0129978947
H       -2.1225726534    0.2052734019    0.9696887529
H       -1.2581079244    1.8211174243   -0.8855080077
C        0.1624536153   -0.2883054143    1.1976414998
H        0.7922200965   -0.3460959816    2.1735636885
13   
C6H6N->C6H6N atoms 1-13 frame 199 charge -0.000 sz -1.000 sz^2 0.725
C        1.4940877212    0.3104182692    0.0205712607
C        0.6116049822   -0.9758026130   -0.1823285895
C       -0.7468387782   -0.3646928038   -1.3203890958
C       -1.1372414395    0.0955161608    0.4760313359
C       -0.5505929483    1.0569981815   -0.7645836826
N        1.0683553580    1.4841866173   -0.5175794621
H        2.1032801371    0.1334582723    0.8861867651
H        1.0542501524   -1.9661790903   -0.1308651309
H       -1.4393715645   -1.1195350108   -1.9370631227
H       -2.0906591018    0.2286964945    1.0140568761
H       -1.2564527925    1.8309398290   -0.9229777210
C        0.1359123695   -0.3330891740    1.2016600298
H        0.7536659045   -0.3809151328    2.1772805369
13   
C6H6N->C6H6N atoms 1-13 frame 201 charge +0.000 sz -1.000 sz^2 0.713
C        1.4688467647    0.3196295255   -0.0056937714
C        0.5931531732   -0.9778111874   -0.1899797996
C       -0.7439645096   -0.3332740484   -1.3411819881
C       -1.1285188324    0.1077813898    0.4800034031
C       -0.5420451125    1.0891927071   -0.7773133533
N        1.0746829070    1.4975475421   -0.4970136169
H        2.0848310950    0.1226908451    0.8644228734
H        1.0985690109   -1.9505412329   -0.1467846350
H       -1.3961682162   -1.1776536103   -1.8477245678
H       -2.0571203431    0.2507089536    1.0540744992
H       -1.2587212677    1.8468976566   -0.9663422795
C        0.1094965566   -0.3799053620    1.2048366856
H        0.6969587740   -0.4152631787    2.1686965503
13   
C6H6N->C6H6N atoms 1-13 frame 203 charge -0.000 sz -1.000 sz^2 0.715
C        1.4429920691    0.3261224334   -0.0304278026
C        0.5756933201   -0.9809855772   -0.1939457049
C       -0.7418563329   -0.3097249784   -1.3533018141
C       -1.1192960411    0.1175866746    0.4868846708
C       -0.5357895075    1.1142855067   -0.7867091272
N        1.0769915148    1.5062968247   -0.4772222575
H        2.0838287309    0.1204642434    0.8358675128
H        1.1390994249   -1.9368994773   -0.1647760445
H       -1.3450610472   -1.2201711777   -1.7515318610
H       -2.0242630258    0.2714279124    1.0878530165
H       -1.2639532380    1.8677804663   -1.0135357196
C        0.0831694027   -0.4281699638    1.2072588222
H        0.6284447299   -0.4480128871    2.1535863092
13   
C6H6N->C6H6N atoms 1-13 frame 205 charge -0.000 sz -1.000 sz^2 0.724
C        1.4171975503    0.3298672863   -0.0532559643
C        0.5596962767   -0.9852320519   -0.1945305462
C       -0.7396046748   -0.2935917981   -1.3578812671
C       -1.1095585681    0.1250767033    0.4961464213
C       -0.5315267973    1.1330833785   -0.7935287641
N        1.0756216334    1.5112598495   -0.4579029087
H        2.0961105441    0.1262513478    0.7995270467
H        1.1748101124   -1.9225316675   -0.1852130334
H       -1.2893034395   -1.2485386364   -1.6531234420
H       -1.9940036749    0.2916926486    1.1147058700
H       -1.2692092370    1.8905824658   -1.0630610672
C        0.0560200203   -0.4782322658    1.2084178199
H        0.5537502542   -0.4796872601    2.1396998350
13   
C6H6N->C6H6N atoms 1-13 frame 207 charge -0.000 sz -1.000 sz^2 0.739
C        1.3918163489    0.3309869893   -0.0740543579
C        0.5455524399   -0.9902097013   -0.1922183477
C       -0.7362294128   -0.2840361526   -1.3558187031
C       -1.0992671835    0.1305398321    0.5072154245
C       -0.5291647334    1.1467027676   -0.7984892810
N        1.0704962655    1.5134581351   -0.4385576359
H        2.1184325034    0.1399963352    0.7535495566
H        1.2049148764   -1.9048033326   -0.2090631600
H       -1.2317057509   -1.2646487414   -1.5560355228
H       -1.9682529031    0.3127142787    1.1339869698
H       -1.2707149299    1.9118725882   -1.1137483099
C        0.0267147830   -0.5309592193    1.2071624295
H        0.4774076966   -0.5116137788    2.1360709379
13   
C6H6N->C6H6N atoms 1-13 frame 210 charge -0.000 sz -1.000 sz^2 0.749
C        1.3676606200    0.3298130354   -0.0924940395
C        0.5340324704   -0.9952109514   -0.1875159830
C       -0.7305976077   -0.2800049223   -1.3477485065
C       -1.0883933929    0.1343846384    0.5195134197
C       -0.5285723834    1.1562445524   -0.8020838123
N        1.0614660882    1.5141086544   -0.4188523476
H        2.1479406000    0.1615597813    0.6966895911
H        1.2287247910   -1.8817744552   -0.2370293927
H       -1.1762008364   -1.2715023355   -1.4644145450
H       -1.9489759052    0.3357533473    1.1450729723
H       -1.2647189494    1.9282481277   -1.1636159358
C       -0.0054940916   -0.5865764062    1.2022979683
H        0.4031285970   -0.5450430662    2.1501806108
13   
C6H6N->C6H6N atoms 1-13 frame 212 charge +0.000 sz -1.000 sz^2 0.734
C        1.3462438626    0.3270029291   -0.1078293146
C        0.5263533315   -0.9991896995   -0.1805682014
C       -0.7215966300   -0.2803697376   -1.3338856273
C       -1.0768940811    0.1372309717    0.5327944292
C       -0.5293830052    1.1626041382   -0.8043613911
N        1.0486482794    1.5145089089   -0.3987677761
H        2.1821049681    0.1902810376    0.6295899809
H        1.2460652192   -1.8529294257   -0.2685893456
H       -1.1278495454   -1.2735228829   -1.3824296703
H       -1.9374037436    0.3618499503    1.1479321585
H       -1.2487338412    1.9370946258   -1.2096926647
C       -0.0399558510   -0.6439222581    1.1937848289
H        0.3324010368   -0.5806385580    2.1820225935
13   
C6H6N->C6H6N atoms 1-13 frame 214 charge +0.000 sz -1.000 sz^2 0.715
C        1.3291953427    0.3235282871   -0.1191781963
C        0.5237486601   -1.0009524363   -0.1709396602
C       -0.7082472511   -0.2841015750   -1.3139941376
C       -1.0647148169    0.1399808585    0.5473564097
C       -0.5310063888    1.1664760983   -0.8050687370
N        1.0323126231    1.5158574462   -0.3783576939
H        2.2191006455    0.2251225783    0.5542907890
H        1.2578251044   -1.8192358525   -0.3021081719
H       -1.0913431600   -1.2756458776   -1.3123336340
H       -1.9333394575    0.3919289489    1.1432366397
H       -1.2221542912    1.9372277194   -1.2493400089
C       -0.0753005284   -0.7011759828    1.1830623889
H        0.2639235182   -0.6190102127    2.2233740125
13   
C6H6N->C6H6N atoms 1-13 frame 216 charge +0.000 sz -1.000 sz^2 0.685
C        1.3177292489    0.3205232506   -0.1258351822
C        0.5270383729   -0.9993829153   -0.1578211026
C       -0.6898437583   -0.2905485209   -1.2876098418
C       -1.0519810222    0.1436642929    0.5637622556
C       -0.5327951394    1.1682485108   -0.8039638928
N        1.0126128598    1.5190098932   -0.3577157558
H        2.2578729782    0.2647212607    0.4733950605
H        1.2659733026   -1.7830909690   -0.3354992920
H       -1.0698841486   -1.2813634080   -1.2542999353
H       -1.9352230872    0.4265622335    1.1318227998
H       -1.1864759813    1.9291787385   -1.2814433873
C       -0.1103832527   -0.7566253547    1.1723500062
H        0.1953596276   -0.6608970123    2.2628582675
13   
C6H6N->C6H6N atoms 1-13 frame 218 charge +0.000 sz -1.000 sz^2 0.657
C        1.3126357830    0.3191189647   -0.1273238895
C        0.5365640638   -0.9935981019   -0.1403580363
C       -0.6660369493   -0.2997322017   -1.2542694104
C       -1.0391473189    0.1491594532    0.5824561628
C       -0.5341728176    1.1677647117   -0.8009887254
N        0.9894916748    1.5242808174   -0.3372226138
H        2.2977878671    0.3072666788    0.3896764235
H        1.2730280310   -1.7481275199   -0.3666297303
H       -1.0651145692   -1.2911171169   -1.2079110219
H       -1.9407348452    0.4655085773    1.1142456559
H       -1.1452281853    1.9150218602   -1.3066668110
C       -0.1445135831   -0.8087474888    1.1638816531
H        0.1254408490   -0.7067986342    2.2911103434
13   
C6H6N->C6H6N atoms 1-13 frame 220 charge -0.000 sz -1.000 sz^2 0.636
C        1.3143382877    0.3203365824   -0.1234627826
C        0.5522010244   -0.9831070384   -0.1179228290
C       -0.6369083246   -0.3122814906   -1.2136734794
C       -1.0269274637    0.1570144698    0.6035556841
C       -0.5346380146    1.1643240659   -0.7962798390
N        0.9628301752    1.5313700554   -0.3176689116
H        2.3382703751    0.3504786513    0.3058531792
H        1.2813536697   -1.7184813001   -0.3934218123
H       -1.0769614056   -1.3021658447   -1.1729268147
H       -1.9472952481    0.5074720678    1.0909694766
H       -1.1035928867    1.8980521859   -1.3273711331
C       -0.1772839384   -0.8562144280    1.1595632640
H        0.0546137496   -0.7567979766    2.3027859978
13   
C6H6N->C6H6N atoms 1-13 frame 223 charge +0.000 sz -1.000 sz^2 0.621
C        1.3228972158    0.3250266440   -0.1145238459
C        0.5734005152   -0.9679236568   -0.0904710372
C       -0.6030055133   -0.3289777593   -1.1659262819
C       -1.0160951153    0.1673850462    0.6267161107
C       -0.5337735756    1.1570050121   -0.7901537869
N        0.9326813811    1.5394587384   -0.3002006621
H        2.3784966550    0.3918618136    0.2242667733
H        1.2921249615   -1.6973482864   -0.4138552709
H       -1.1033835425   -1.3097613703   -1.1493108509
H       -1.9526267130    0.5502603857    1.0627769457
H       -1.0671821487    1.8817785918   -1.3469124620
C       -0.2083965171   -0.8979885086    1.1606297234
H       -0.0151376031   -0.8107766503    2.2969646447
13   
C6H6N->C6H6N atoms 1-13 frame 225 charge -0.000 sz -1.000 sz^2 0.627
C        1.3379684598    0.3338668301   -0.1014744739
C        0.5992267848   -0.9485304979   -0.0589171746
C       -0.5653591003   -0.3501130855   -1.1117960374
C       -1.0072989802    0.1801248927    0.6510193586
C       -0.5313494790    1.1452390795   -0.7831801130
N        0.8993863354    1.5474961615   -0.2861850009
H        2.4172721745    0.4291705717    0.1464516704
H        1.3045884130   -1.6856056251   -0.4261135843
H       -1.1404512592   -1.3088622333   -1.1370283649
H       -1.9553613443    0.5913834580    1.0309112903
H       -1.0400874522    1.8680405380   -1.3680473177
C       -0.2376588637   -0.9334473156    1.1671419852
H       -0.0808756889   -0.8687627742    2.2772177622
13   
C6H6N->C6H6N atoms 1-13 frame 227 charge +0.000 sz -1.000 sz^2 0.644
C        1.3589055659    0.3474243129   -0.0860693125
C        0.6285449905   -0.9256224697   -0.0251360372
C       -0.5252815918   -0.3752101159   -1.0526257499
C       -1.0009458067    0.1950234349    0.6750743686
C       -0.5273963083    1.1291550974   -0.7762722332
N        0.8633974519    1.5545343711   -0.2770734526
H        2.4533446730    0.4609474299    0.0725810175
H        1.3164070236   -1.6816057063   -0.4289821600
H       -1.1830683604   -1.2953212965   -1.1358791418
H       -1.9554311985    0.6289860634    0.9967525210
H       -1.0235348858    1.8555590769   -1.3914746593
C       -0.2651854362   -0.9625161279    1.1776642455
H       -0.1397561173   -0.9313540703    2.2514405941
13   
C6H6N->C6H6N atoms 1-13 frame 229 charge -0.000 sz -1.000 sz^2 0.671
C        1.3849770173    0.3661930082   -0.0707257292
C        0.6602148048   -0.8999089745    0.0083367903
C       -0.4842557549   -0.4031683797   -0.9901448442
C       -0.9972275079    0.2119739649    0.6972120923
C       -0.5221182455    1.1094330887   -0.7706528470
N        0.8251661744    1.5598379537   -0.2744132745
H        2.4857611649    0.4865586034    0.0015989407
H        1.3247216324   -1.6823195487   -0.4220663720
H       -1.2256423823   -1.2661046451   -1.1454512925
H       -1.9539905154    0.6622804062    0.9615132699
H       -1.0165114895    1.8405006280   -1.4157033636
C       -0.2914026766   -0.9854499177    1.1894804562
H       -0.1896922216   -0.9998261874    2.2310161738
13   
C6H6N->C6H6N atoms 1-13 frame 231 charge +0.000 sz -1.000 sz^2 0.695
C        1.4151493326    0.3902513967   -0.0583342537
C        0.6928314563   -0.8724390779    0.0384731407
C       -0.4444055788   -0.4322064580   -0.9269619741
C       -0.9961786422    0.2307962480    0.7155967257
C       -0.5157998846    1.0871841486   -0.7676369958
N        0.7857177147    1.5627765341   -0.2797052499
H        2.5138422881    0.5057568531   -0.0672711897
H        1.3270440903   -1.6845649277   -0.4057294131
H       -1.2620137611   -1.2198290012   -1.1646679629
H       -1.9530890734    0.6911300565    0.9267516390
H       -1.0172314792    1.8184344900   -1.4376701022
C       -0.3165832772   -1.0022722732    1.1993448066
H       -0.2292831855   -1.0750179891    2.2278108294
13   
C6H6N->C6H6N atoms 1-13 frame 233 charge -0.000 sz -1.000 sz^2 0.704
C        1.4477008022    0.4186316650   -0.0513979124
C        0.7245614096   -0.8449333117    0.0626348405
C       -0.4086355721   -0.4599154647   -0.8664892947
C       -0.9976052847    0.2510137897    0.7288885539
C       -0.5087677266    1.0638579213   -0.7679600028
N        0.7471492609    1.5628685247   -0.2934382310
H        2.5374773348    0.5187031986   -0.1331944467
H        1.3221736562   -1.6858641543   -0.3809759187
H       -1.2859905338   -1.1583278688   -1.1905300893
H       -1.9551089263    0.7157934627    0.8948750182
H       -1.0237865473    1.7864627920   -1.4536886687
C       -0.3406270955   -1.0127777785    1.2051339151
H       -0.2585407774   -1.1555127760    2.2461422366
13   
C6H6N->C6H6N atoms 1-13 frame 235 charge +0.000 sz -1.000 sz^2 0.692
C        1.4810246389    0.4496882967   -0.0506172568
C        0.7541855543   -0.8189337919    0.0803082581
C       -0.3790804335   -0.4844245939   -0.8106000578
C       -1.0011130888    0.2722260306    0.7373438665
C       -0.5012053615    1.0404647087   -0.7710816305
N        0.7114451651    1.5600091669   -0.3143099133
H        2.5580338391    0.5264547634   -0.1950908083
H        1.3108642975   -1.6853150531   -0.3489809166
H       -1.2938689712   -1.0861510676   -1.2186045723
H       -1.9617089070    0.7373032368    0.8680025206
H       -1.0345130910    1.7442404958   -1.4611874983
C       -0.3638546577   -1.0174401451    1.2072406573
H       -0.2802089844   -1.2381220473    2.2775773515
13   
C6H6N->C6H6N atoms 1-13 frame 238 charge -0.000 sz -1.000 sz^2 0.632
C        1.5144739602    0.4821351457   -0.0554973434
C        0.7815119327   -0.7952134445    0.0924121619
C       -0.3567836561   -0.5047394481   -0.7591689864
C       -1.0064843122    0.2944986214    0.7421358716
C       -0.4930337162    1.0171884629   -0.7757405208
N        0.6798231203    1.5542760434   -0.3405055468
H        2.5778719380    0.5303445730   -0.2527552406
H        1.2948397067   -1.6836075526   -0.3103122614
H       -1.2842164682   -1.0074356677   -1.2454601184
H       -1.9735144492    0.7569193088    0.8473864159
H       -1.0489069139    1.6926775210   -1.4589050032
C       -0.3873164594   -1.0171532663    1.2072073840
H       -0.2982646825   -1.3198902971    2.3092031876
13   
C6H6N->C6H6N atoms 1-13 frame 240 charge -0.000 sz -1.000 sz^2 0.577
C        1.5479212648    0.5149027826   -0.0653548192
C        0.8066872518   -0.7742199871    0.0998933425
C       -0.3427029832   -0.5198768591   -0.7117115710
C       -1.0137346542    0.3181845788    0.7444806474
C       -0.4840454668    0.9939814422   -0.7804203924
N        0.6536486272    1.5458943506   -0.3702791472
H        2.5995012429    0.5316070884   -0.3061139149
H        1.2763731604   -1.6827843390   -0.2654151475
H       -1.2564430143   -0.9261911974   -1.2689760001
H       -1.9902177316    0.7756166084    0.8341205437
H       -1.0678679909    1.6336863353   -1.4463493363
C       -0.4124099179   -1.0126600622    1.2062561591
H       -0.3167097882   -1.3981407417    2.3298696359
13   
C6H6N->C6H6N atoms 1-13 frame 242 charge +0.000 sz -1.000 sz^2 0.527
C        1.5814213181    0.5467364044   -0.0794316090
C        0.8298618490   -0.7563676662    0.1033540959
C       -0.3379428852   -0.5284128327   -0.6680814415
C       -1.0228980741    0.3437523570    0.7455912047
C       -0.4739858321    0.9710188105   -0.7832516092
N        0.6351884621    1.5354499286   -0.4016803725
H        2.6250683608    0.5315542238   -0.3544460076
H        1.2585025328   -1.6862505250   -0.2151363074
H       -1.2112206035   -0.8479448046   -1.2884122762
H       -2.0103619524    0.7940432044    0.8295585851
H       -1.0936578100    1.5708556170   -1.4239006562
C       -0.4405376074   -1.0044124958    1.2050024442
H       -0.3394377579   -1.4700222214    2.3308339496
13   
C6H6N->C6H6N atoms 1-13 frame 244 charge -0.000 sz -1.000 sz^2 0.587
C        1.6151015799    0.5759445786   -0.0966763465
C        0.8512114160   -0.7421598695    0.1030926130
C       -0.3431749202   -0.5286372235   -0.6284078334
C       -1.0336910731    0.3715617962    0.7469187924
C       -0.4626426749    0.9489262531   -0.7818863865
N        0.6278391752    1.5240389272   -0.4322530705
H        2.6557933426    0.5318881118   -0.3957995874
H        1.2447705086   -1.6979664779   -0.1608730211
H       -1.1523441074   -0.7809821131   -1.3053434642
H       -2.0311773771    0.8125022959    0.8351990728
H       -1.1290812694    1.5096185502   -1.3927650744
C       -0.4726589608   -0.9927160578    1.2035893257
H       -0.3699456393   -1.5320187713    2.3052049801
13   
C6H6N->C6H6N atoms 1-13 frame 246 charge +0.000 sz -1.000 sz^2 0.642
C        1.6486852304    0.6002605938   -0.1155593944
C        0.8708785699   -0.7323206059    0.0992654558
C       -0.3576259411   -0.5194495120   -0.5929618526
C       -1.0451940070    0.4013796394    0.7502436888
C       -0.4502583992    0.9289754765   -0.7739068221
N        0.6353472065    1.5131297180   -0.4590751960
H        2.6911636474    0.5348567695   -0.4267964799
H        1.2379494212   -1.7197155406   -0.1049264776
H       -1.0888659516   -0.7363770384   -1.3244655626
H       -2.0489938341    0.8306227785    0.8517590879
H       -1.1745022640    1.4561909732   -1.3542151934
C       -0.5084964797   -0.9781170359    1.2018334667
H       -0.4100871987   -1.5794362159    2.2488052793
13   
From optimize.out: Frame 1 / 24, Energy=    -286.6359586858
C        1.6806301370    0.6171970913   -0.1342795518
C        0.8886408825   -0.7276647277    0.0922564484
C       -0.3784988720   -0.5020436106   -0.5621175528
C       -1.0559241710    0.4319739526    0.7573740474
C       -0.4381748009    0.9131096033   -0.7580598576
N        0.6594136815    1.5039485023   -0.4797009203
H        2.7282816039    0.5428028459   -0.4440368096
H        1.2383177431   -1.7478377012   -0.0511618249
H       -1.0336462559   -0.7245269675   -1.3512247080
H       -2.0609357420    0.8470554844    0.8775119814
H       -1.2239281923    1.4153989360   -1.3091029457
C       -0.5458416777   -0.9616203448    1.1992126454
H       -0.4583343363   -1.6077930641    2.1633290481
13   
From optimize.out: Frame 4 / 24, Energy=    -286.7306690275
C        1.7089762931    0.6260793821   -0.1521428943
C        0.9041224519   -0.7280287374    0.0826683816
C       -0.4021631289   -0.4805522142   -0.5360186314
C       -1.0648898001    0.4618447903    0.7688515723
C       -0.4282933641    0.9028753503   -0.7358253780
N        0.6967575772    1.4966618713   -0.4946630082
H        2.7633202225    0.5567173044   -0.4483679815
H        1.2431661705   -1.7744029199   -0.0035804009
H       -0.9935609320   -0.7460850508   -1.3847864981
H       -2.0676849659    0.8607307082    0.9079897561
H       -1.2672016054    1.3874683297   -1.2589216915
C       -0.5818533919   -0.9436988420    1.1946491423
H       -0.5106955268   -1.6196099720    2.0601476313
13   
From optimize.out: Frame 6 / 24, Energy=    -286.7729725424
C        1.6846680037    0.5994692906   -0.1633174391
C        0.9005733077   -0.7357881606    0.0650462129
C       -0.4170569435   -0.4888000138   -0.5392812449
C       -1.0712904088    0.4628865114    0.7754058348
C       -0.4228720153    0.9207275899   -0.7149565026
N        0.7527895683    1.5077944454   -0.4991182777
H        2.7453221887    0.5567276180   -0.4160423140
H        1.2534299692   -1.7756664942    0.0101382148
H       -0.9972548507   -0.8092118180   -1.3987133325
H       -2.0786793634    0.8415959260    0.9269111929
H       -1.2615941711    1.4173558580   -1.2217168436
C       -0.5807265331   -0.9132724658    1.1663360263
H       -0.5073087518   -1.5838182869    2.0093084728
13   
From optimize.out: Frame 8 / 24, Energy=    -286.8036692716
C        1.6487016427    0.5537078728   -0.1553108131
C        0.8917139114   -0.7449285899    0.0471139893
C       -0.4288264879   -0.5109774429   -0.5568830671
C       -1.0772915265    0.4722906826    0.7773830259
C       -0.4337335980    0.9360603736   -0.6863652152
N        0.7995281942    1.4986135352   -0.4925257807
H        2.7196754750    0.5563250892   -0.3489973622
H        1.2702739187   -1.7678773309    0.0102352961
H       -1.0112598080   -0.8774793544   -1.4014788743
H       -2.0884021674    0.8351723690    0.9426228937
H       -1.2515029689    1.4541104012   -1.1870869610
C       -0.5629645033   -0.8721780259    1.1014467416
H       -0.4759120820   -1.5328395796    1.9498461269
13   
From optimize.out: Frame 10 / 24, Energy=    -286.8213669782
C        1.6239230176    0.5192089945   -0.1461786033
C        0.8839138149   -0.7564946847    0.0325871263
C       -0.4360907369   -0.5392238462   -0.5732951822
C       -1.0837862394    0.4991837545    0.7846653682
C       -0.4495929635    0.9454344155   -0.6518365372
N        0.8318770820    1.4909712768   -0.4805479331
H        2.7024551477    0.5597274203   -0.2795335591
H        1.2834287684   -1.7667600346    0.0124067447
H       -1.0129015886   -0.9515896696   -1.4058359908
H       -2.0948412194    0.8514381296    0.9661665959
H       -1.2473402181    1.4816268186   -1.1544249596
C       -0.5491114610   -0.8353676638    1.0258821510
H       -0.4519334037   -1.4981549107    1.8699447791
13   
From optimize.out: Frame 12 / 24, Energy=    -286.8306032373
C        1.6085508766    0.4949192303   -0.1407741840
C        0.8776388929   -0.7700853393    0.0151076720
C       -0.4387761302   -0.5714292006   -0.5959417915
C       -1.0870263515    0.5361490015    0.8011444115
C       -0.4701328173    0.9481819195   -0.6154272858
N        0.8528692152    1.4832917869   -0.4671313053
H        2.6909644799    0.5643163084   -0.2110397368
H        1.2942726193   -1.7707750505    0.0111000495
H       -1.0002767335   -1.0274459012   -1.4198413661
H       -2.0928382801    0.8846337725    1.0082833546
H       -1.2483499259    1.5005165374   -1.1260199672
C       -0.5431583372   -0.7993135126    0.9529111969
H       -0.4437375082   -1.4729595522    1.7876289521
13   
From optimize.out: Frame 14 / 24, Energy=    -286.8350894723
C        1.5969539925    0.4770386102   -0.1435256755
C        0.8711589094   -0.7843827647   -0.0069031547
C       -0.4423856364   -0.6011240819   -0.6281358663
C       -1.0802371102    0.5762795235    0.8257736985
C       -0.4931227416    0.9497827911   -0.5792030446
N        0.8652928303    1.4780899594   -0.4654647568
H        2.6804098757    0.5700890040   -0.1359299329
H        1.3058157608   -1.7761175123    0.0098596009
H       -0.9838955293   -1.1016399893   -1.4395727600
H       -2.0792233510    0.9188752802    1.0684975274
H       -1.2486646725    1.5168284136   -1.1086712205
C       -0.5409497077   -0.7641287400    0.8917734390
H       -0.4511526199   -1.4595904937    1.7115021456
13   
From optimize.out: Frame 17 / 24, Energy=    -286.8363609249
C        1.5865750713    0.4715083130   -0.1571365712
C        0.8622314532   -0.7931266350   -0.0258138545
C       -0.4510753933   -0.6196153628   -0.6628824637
C       -1.0528962826    0.6153200036    0.8594363578
C       -0.5139726403    0.9553103025   -0.5500340390
N        0.8670132621    1.4783513082   -0.4832193937
H        2.6649193924    0.5792817341   -0.0599711573
H        1.3179237455   -1.7745952858    0.0157937106
H       -0.9729461033   -1.1679723889   -1.4517360389
H       -2.0469116111    0.9390583959    1.1453169377
H       -1.2385063279    1.5299255267   -1.1183226059
C       -0.5349343534   -0.7366654695    0.8507282925
H       -0.4874202124   -1.4767804420    1.6378408254
13   
From optimize.out: Frame 19 / 24, Energy=    -286.8364444846
C        1.5806676435    0.4757616127   -0.1747476191
C        0.8531308505   -0.7948535896   -0.0304351127
C       -0.4608631065   -0.6249122353   -0.6868620420
C       -1.0113948353    0.6487464941    0.8926912376
C       -0.5296863176    0.9634345500   -0.5346758425
N        0.8606054318    1.4804937095   -0.5060561124
H        2.6509302206    0.5906668065   -0.0106945450
H        1.3284997563   -1.7670209922    0.0242308755
H       -0.9639019328   -1.2239194704   -1.4461186015
H       -2.0032386868    0.9410031122    1.2204815968
H       -1.2224064427    1.5425144152   -1.1407991105
C       -0.5157323668   -0.7183327343    0.8292291746
H       -0.5666102142   -1.5135816784    1.5637561013
13   
From optimize.out: Frame 21 / 24, Energy=    -286.8364809610
C        1.5804107802    0.4827694113   -0.1862673979
C        0.8469734284   -0.7960836474   -0.0166156230
C       -0.4676986260   -0.6176871502   -0.6963935117
C       -0.9697478219    0.6725796140    0.9154379936
C       -0.5409593174    0.9675358080   -0.5323529850
N        0.8503094472    1.4783398431   -0.5240833518
H        2.6467944730    0.6030009457    0.0004492932
H        1.3382753512   -1.7626914070    0.0162041124
H       -0.9489880591   -1.2642714698   -1.4261813210
H       -1.9576457211    0.9301363556    1.2841845549
H       -1.2104269606    1.5550575752   -1.1585234731
C       -0.4792995790   -0.7091863226    0.8293000860
H       -0.6879973950   -1.5394995560    1.4948416235
13   
From optimize.out: Frame 23 / 24, Energy=    -286.8364925738
C        1.5760285402    0.4905829746   -0.1802268852
C        0.8451033833   -0.7987643908   -0.0034579785
C       -0.4633490545   -0.6151088003   -0.7008306503
C       -0.9622863165    0.6742249893    0.9121766739
C       -0.5545041403    0.9502718022   -0.5408383873
N        0.8335452356    1.4756464003   -0.5243753546
H        2.6434858991    0.6148788365   -0.0009238289
H        1.3463286226   -1.7619347469    0.0059605398
H       -0.9182237166   -1.2629738316   -1.4445599550
H       -1.9031227831    0.9730394210    1.3603932228
H       -1.2164879894    1.5365400964   -1.1779315234
C       -0.4782102071   -0.7177034652    0.8322060845
H       -0.7483074734   -1.5586992854    1.4624080422
