13   
From optimize.out: Frame 23 / 24, Energy=    -286.8549095738
C        1.6801790246    0.3941026087   -0.1783820193
C        1.1262118113   -0.8348490310   -0.2685289378
C       -0.3162841307   -1.0621848678   -0.0823204238
C       -1.1557279371    0.3278757744    0.0469936080
C       -0.3269541053    1.5324844040   -0.1484785026
N        0.9598677316    1.5898455975   -0.1662576803
H        2.7570140642    0.5227856985   -0.2501939659
H        1.7478113132   -1.6980287218   -0.4937562742
H       -0.7575702086   -1.9017382680   -0.6224630194
H       -2.1622104709    0.3916870516   -0.3711500977
H       -0.8676481845    2.4600622154   -0.3521833492
C       -0.9589916683   -0.6131773555    1.1517287765
H       -1.7256972399   -1.1088651055    1.7349918851
13   
From optimize.out: Frame 22 / 24, Energy=    -286.8549035522
C        1.6799731064    0.3941319363   -0.1790063917
C        1.1262784124   -0.8349235305   -0.2679070471
C       -0.3162253380   -1.0619149479   -0.0834926099
C       -1.1551537210    0.3263797216    0.0459881840
C       -0.3267264094    1.5314152613   -0.1471500452
N        0.9597999123    1.5896534341   -0.1644345160
H        2.7567004123    0.5238934995   -0.2507805596
H        1.7481120803   -1.6978181694   -0.4934984528
H       -0.7592204640   -1.8999692990   -0.6240550625
H       -2.1613043271    0.3907772592   -0.3725831734
H       -0.8672120865    2.4587957188   -0.3525714143
C       -0.9600397289   -0.6133768491    1.1508500712
H       -1.7249818490   -1.1070440350    1.7386410173
13   
From optimize.out: Frame 21 / 24, Energy=    -286.8548897380
C        1.6801299538    0.3938090566   -0.1808134680
C        1.1267911867   -0.8355235787   -0.2665922855
C       -0.3166312513   -1.0604662587   -0.0823918362
C       -1.1528555815    0.3262249923    0.0458834927
C       -0.3267001446    1.5322437872   -0.1444315715
N        0.9600373634    1.5900595189   -0.1630798746
H        2.7565864529    0.5249280531   -0.2550149076
H        1.7483642591   -1.6990412557   -0.4903139603
H       -0.7615841799   -1.8967186058   -0.6243515089
H       -2.1586186325    0.3893091412   -0.3737836063
H       -0.8687156621    2.4580129131   -0.3533092421
C       -0.9607651791   -0.6142694429    1.1507984933
H       -1.7260385851   -1.1085683208    1.7374002749
13   
From optimize.out: Frame 20 / 24, Energy=    -286.8548787835
C        1.6800098822    0.3926048979   -0.1789452779
C        1.1276596073   -0.8363941794   -0.2719157587
C       -0.3146827767   -1.0623086577   -0.0821797239
C       -1.1531499685    0.3256109950    0.0431209321
C       -0.3268603948    1.5323320361   -0.1449644595
N        0.9600871140    1.5899637402   -0.1640754250
H        2.7561819415    0.5249537153   -0.2548999180
H        1.7505040571   -1.6993181165   -0.4941246677
H       -0.7583923508   -1.9012471930   -0.6203210775
H       -2.1589653967    0.3864268527   -0.3764397386
H       -0.8696539019    2.4596982708   -0.3446858249
C       -0.9618267470   -0.6106420466    1.1524214761
H       -1.7309110657   -1.1016803148    1.7370094635
13   
From optimize.out: Frame 19 / 24, Energy=    -286.8548201052
C        1.6793099700    0.3928251455   -0.1893604007
C        1.1289346296   -0.8368409759   -0.2677843936
C       -0.3141564478   -1.0649163738   -0.0739153037
C       -1.1509874151    0.3188601212    0.0299862213
C       -0.3262058048    1.5305919904   -0.1416204221
N        0.9594497043    1.5906265792   -0.1567279880
H        2.7549613944    0.5266152603   -0.2697529978
H        1.7515247498   -1.6977536856   -0.4981640373
H       -0.7556069375   -1.9079984703   -0.6083696105
H       -2.1526555814    0.3777195853   -0.3998900738
H       -0.8684520656    2.4634279591   -0.3157162997
C       -0.9647480483   -0.6037298207    1.1559592275
H       -1.7413681477   -1.0894273147    1.7353560786
13   
From optimize.out: Frame 18 / 24, Energy=    -286.8547031652
C        1.6802463791    0.3931708732   -0.1970296239
C        1.1309879790   -0.8356793815   -0.2649548106
C       -0.3115906984   -1.0643924848   -0.0631571974
C       -1.1511561046    0.3161001401    0.0221146343
C       -0.3252823595    1.5310641403   -0.1378806586
N        0.9597890639    1.5913329570   -0.1549174997
H        2.7547815612    0.5253838427   -0.2925245420
H        1.7520927163   -1.6966026796   -0.4992562653
H       -0.7467588614   -1.9164627927   -0.5892550941
H       -2.1476364829    0.3683516239   -0.4202824029
H       -0.8659248692    2.4694406848   -0.2852822049
C       -0.9710344671   -0.5968838561    1.1598954843
H       -1.7585138563   -1.0848230674    1.7225301808
13   
From optimize.out: Frame 17 / 24, Energy=    -286.8545971168
C        1.6849367936    0.3941624763   -0.2039763936
C        1.1345129961   -0.8390986799   -0.2596889147
C       -0.3090740159   -1.0605607930   -0.0613032124
C       -1.1530971315    0.3106727066    0.0125717448
C       -0.3245381570    1.5300609081   -0.1364337188
N        0.9620146735    1.5922355679   -0.1552477013
H        2.7584760826    0.5271637060   -0.3096686104
H        1.7517776084   -1.7040692581   -0.4895500853
H       -0.7375224730   -1.9177821774   -0.5839610370
H       -2.1494511760    0.3718033835   -0.4287523088
H       -0.8745493106    2.4666198237   -0.2590876043
C       -0.9772880955   -0.5945212235    1.1550255742
H       -1.7661977947   -1.0766864402    1.7200722676
13   
From optimize.out: Frame 15 / 24, Energy=    -286.8541353348
C        1.6807447147    0.3952655146   -0.2140075482
C        1.1322399132   -0.8359207239   -0.2598062216
C       -0.3088325121   -1.0718586058   -0.0460412178
C       -1.1534504963    0.3084694947    0.0084984043
C       -0.3264590840    1.5287763758   -0.1397713225
N        0.9579714276    1.5924038640   -0.1540608206
H        2.7566130484    0.5214679654   -0.3012130448
H        1.7505605198   -1.6960806432   -0.5056427119
H       -0.7396621158   -1.9231256090   -0.5814679652
H       -2.1432529179    0.3586246718   -0.4521241800
H       -0.8674228924    2.4727954384   -0.2415298628
C       -0.9718728076   -0.5801789505    1.1700387116
H       -1.7671767974   -1.0706387921    1.7171277795
13   
From optimize.out: Frame 13 / 24, Energy=    -286.8535224494
C        1.6961303366    0.3968190703   -0.2118018270
C        1.1411835240   -0.8358169923   -0.2380216890
C       -0.2949177695   -1.0528028386   -0.0192081347
C       -1.1577330451    0.3016954299   -0.0021814889
C       -0.3199153224    1.5267636210   -0.1340877250
N        0.9687473475    1.5937237580   -0.1560979873
H        2.7624355844    0.5289114733   -0.3758523665
H        1.7379053929   -1.7063860017   -0.4981765475
H       -0.7117883853   -1.9236527164   -0.5310578225
H       -2.1407880610    0.3694019787   -0.4720885974
H       -0.8771863717    2.4659943698   -0.1929136061
C       -0.9989099381   -0.5789913128    1.1559945692
H       -1.8051632922   -1.0856598392    1.6754932227
13   
From optimize.out: Frame 12 / 24, Energy=    -286.8518398403
C        1.6980412016    0.3956196480   -0.2436069537
C        1.1416927524   -0.8292341262   -0.2231609748
C       -0.3063199960   -1.0067283597   -0.0599253665
C       -1.1627661219    0.3037106007    0.0181996689
C       -0.3261242867    1.5146546411   -0.1437927713
N        0.9643103181    1.5862868451   -0.1747767879
H        2.7697734300    0.5156202123   -0.3771174322
H        1.7287097668   -1.7206891928   -0.4274708789
H       -0.7085448665   -1.8907894864   -0.5623206244
H       -2.1482841821    0.3476170940   -0.4507899217
H       -0.8763209311    2.4583967255   -0.1806472088
C       -0.9859184780   -0.5652126148    1.1741511131
H       -1.7882486066   -1.1092519867    1.6512581382
13   
From optimize.out: Frame 11 / 24, Energy=    -286.8515276178
C        1.6830174756    0.4032245223   -0.2622666991
C        1.1357102012   -0.8291193100   -0.2609057695
C       -0.2844675252   -1.0634368616    0.0177871565
C       -1.1653186320    0.3196249328    0.0038339765
C       -0.3253222573    1.5141681101   -0.1316067617
N        0.9590768359    1.5848121659   -0.1504669699
H        2.7552427753    0.5275393637   -0.3881188930
H        1.7493331048   -1.7033226226   -0.4643337118
H       -0.7112166299   -1.9329697508   -0.4853651322
H       -2.1435144435    0.3713751669   -0.4785923566
H       -0.8420699352    2.4773806145   -0.1645125924
C       -1.0030867643   -0.5408159847    1.1687128115
H       -1.8073842053   -1.1284603464    1.5958349417
13   
From optimize.out: Frame 10 / 24, Energy=    -286.8474564242
C        1.6950154249    0.3994569047   -0.2698487131
C        1.1442388531   -0.8319616556   -0.2720498403
C       -0.2727754843   -1.0428751737    0.0104325804
C       -1.1849568230    0.3149768125   -0.0107764957
C       -0.3423109418    1.4930895644   -0.1341374277
N        0.9556574561    1.5667311147   -0.1549629724
H        2.7677237875    0.5283900367   -0.3931047758
H        1.7796596528   -1.7075431934   -0.3973419361
H       -0.7673390359   -1.8865334884   -0.4773684861
H       -2.1815028693    0.3795591916   -0.4512174609
H       -0.8337960965    2.4722389858   -0.1598984697
C       -0.9889653891   -0.5256298954    1.1512525785
H       -1.7706485345   -1.1598992038    1.5590214188
13   
From optimize.out: Frame 9 / 24, Energy=    -286.8397144737
C        1.6872923502    0.3889087506   -0.3008646902
C        1.1604601239   -0.8448395649   -0.2818262233
C       -0.2316912192   -1.0772276693    0.0154445952
C       -1.2308261956    0.3211894322   -0.0143256416
C       -0.3587426075    1.4782842526   -0.1421608108
N        0.9422428891    1.5463143807   -0.1708587765
H        2.7642667540    0.5187055104   -0.3798853390
H        1.8298651533   -1.7020182236   -0.3544956430
H       -0.7530344710   -1.8629951723   -0.5274690114
H       -2.2408075862    0.4009539289   -0.4075027262
H       -0.7999502754    2.4832132320   -0.1454964282
C       -1.0022173841   -0.4964845561    1.1437690216
H       -1.7668575313   -1.1540043010    1.5656716734
13   
From optimize.out: Frame 8 / 24, Energy=    -286.8216786057
C        1.6893811500    0.3888762206   -0.3190005808
C        1.1867395732   -0.8425368886   -0.3042379654
C       -0.1794807979   -1.0810062652    0.0380179571
C       -1.2679084939    0.3078322103   -0.0377570489
C       -0.3636437312    1.4366352135   -0.1521886382
N        0.9246957802    1.5097111005   -0.1755421693
H        2.7651207629    0.5391987797   -0.3699960942
H        1.8824929712   -1.6810178334   -0.3411296151
H       -0.8317743061   -1.7621179726   -0.4760938952
H       -2.2784542709    0.4114732042   -0.4025578725
H       -0.7439760027    2.4669175424   -0.1428617866
C       -1.0124976541   -0.5103877903    1.1202676184
H       -1.7706949806   -1.1835775212    1.5630800906
13   
From optimize.out: Frame 7 / 24, Energy=    -286.8085551488
C        1.6355249142    0.3995466392   -0.2563804651
C        1.0802260287   -0.8427364060   -0.2592863964
C       -0.3134651521   -1.0996280734   -0.0520373030
C       -1.2068763839    0.2910269217   -0.0672239525
C       -0.3667399472    1.4600939650   -0.1786247297
N        0.9148572002    1.5430273350   -0.1709119050
H        2.7166489428    0.5118903227   -0.2380106020
H        1.7745773820   -1.6833362278   -0.2357858065
H       -0.9609405939   -1.7319218572   -0.6325865948
H       -2.2263971393    0.3076125457   -0.4214955171
H       -0.7656936309    2.4831432411   -0.1915801223
C       -0.8049625619   -0.4494829083    1.1093208128
H       -1.4767590587   -1.1892354977    1.5946025816
13   
From optimize.out: Frame 6 / 24, Energy=    -286.7740170881
C        1.6186913837    0.3882700580   -0.2295155602
C        1.0417340414   -0.8554631696   -0.2274636428
C       -0.3508727613   -1.0708034662   -0.0957580683
C       -1.2383480889    0.2724501146   -0.0801233163
C       -0.3813003951    1.4491672504   -0.2086339959
N        0.9034911219    1.5298061991   -0.1885720242
H        2.6973752810    0.4921085519   -0.1604156053
H        1.7240195951   -1.7022335037   -0.1433301203
H       -0.9910320653   -1.6530980502   -0.7395569210
H       -2.2744379461    0.2589924178   -0.3809879369
H       -0.7616481766    2.4767956823   -0.2009610255
C       -0.6866113886   -0.4117218735    1.0590912965
H       -1.3010606012   -1.1742702108    1.5962269201
13   
From optimize.out: Frame 5 / 24, Energy=    -286.7510879796
C        1.6101144070    0.3703876047   -0.1819454542
C        1.0273243440   -0.8889198210   -0.2237519199
C       -0.3530627967   -1.0763870403   -0.2133639032
C       -1.2767680938    0.2350148323   -0.0526338783
C       -0.4019687033    1.4238392878   -0.2228262339
N        0.8910741136    1.5046487290   -0.1813322410
H        2.6823105316    0.4820331653   -0.0603996409
H        1.7047421027   -1.7395461381   -0.1316298181
H       -0.9641670436   -1.5658258224   -0.9629246722
H       -2.3185259253    0.1734213851   -0.3367037007
H       -0.7778136282    2.4502582270   -0.2487520214
C       -0.6194770504   -0.3088458017    1.1101159310
H       -1.2037822577   -1.0600786078    1.7061475528
13   
From optimize.out: Frame 4 / 24, Energy=    -286.7077971221
C        1.5924912706    0.3371072947   -0.1054759743
C        1.0087054975   -0.9356209880   -0.2649797507
C       -0.3704148242   -1.1143053738   -0.4616278756
C       -1.2936815695    0.2102071318    0.0250371154
C       -0.4405323081    1.4100183895   -0.2401752729
N        0.8692024001    1.4863268184   -0.1592492398
H        2.6465572954    0.4469408845    0.1256433567
H        1.6738008195   -1.7894286779   -0.1201161806
H       -0.8930474057   -1.5417673474   -1.3341451980
H       -2.3363501580    0.0566130707   -0.2434029208
H       -0.8425171222    2.4189661469   -0.3430421031
C       -0.5459641862   -0.1386481962    1.2171870041
H       -1.0682497091   -0.8464091532    1.9043470396
13   
From optimize.out: Frame 3 / 24, Energy=    -286.6756499965
C        1.5691581758    0.3267969930   -0.0334413323
C        0.9134264352   -0.9394761726   -0.2328330993
C       -0.4802253712   -1.0342484485   -0.5242429210
C       -1.2244447787    0.1462025362    0.0010873160
C       -0.4584762158    1.4114579987   -0.2678703342
N        0.8684101833    1.5102082222   -0.1283103082
H        2.6122580073    0.3995362201    0.2558258356
H        1.5239009116   -1.8266679469   -0.0466913663
H       -1.0111597061   -1.4085267804   -1.4476495644
H       -2.2564027525   -0.1300013213   -0.2478055055
H       -0.9324066025    2.3861393363   -0.3705267166
C       -0.3585672365   -0.0540538158    1.1618243172
H       -0.7654710497   -0.7873668209    1.8806336791
13   
From optimize.out: Frame 2 / 24, Energy=    -286.6254313898
C        1.5645861188    0.3053620086   -0.0014603053
C        0.9217487011   -0.9961418285   -0.2320311605
C       -0.4892757944   -1.1363621458   -0.5155397195
C       -1.2493087816    0.1780213871   -0.0196472869
C       -0.5034964669    1.4628202157   -0.2537902992
N        0.8487996142    1.5093387616   -0.0768081852
H        2.6067752102    0.3870859846    0.2892595196
H        1.5619613704   -1.8667968085   -0.0632280703
H       -1.0621096554   -1.4760938701   -1.4560433648
H       -2.2727630898   -0.1623756475   -0.2595760379
H       -0.9929765675    2.4306586057   -0.3251972358
C       -0.3008861440    0.0548448016    1.0939614557
H       -0.6330545152   -0.6903614645    1.8201006903
13   
From optimize.out: Frame 1 / 24, Energy=    -286.5524627724
C        1.5592183903    0.2846966828   -0.0321847876
C        0.9897827665   -1.0954504815   -0.2076457641
C       -0.4196196453   -1.4141817586   -0.4544709946
C       -1.3835027351    0.3435107951   -0.0365699840
C       -0.5553784183    1.5847959357   -0.2233577436
N        0.8201723405    1.4994668684   -0.0776353291
H        2.6062778258    0.4136976157    0.2236411352
H        1.7180598150   -1.8922600227   -0.0262553229
H       -1.0064789569   -1.8494371764   -1.3736469944
H       -2.4480037480    0.0707850399   -0.2250295434
H       -0.9823861616    2.5825511434   -0.1910767668
C       -0.3026463564    0.1234414949    0.9638720311
H       -0.5954951165   -0.6516161368    1.6603600641
13   
C5H5N+CH->C6H6N atoms 1-13 frame 109 charge +0.000 sz -1.000 sz^2 0.500
C        1.5592183903    0.2846966828   -0.0321847876
C        0.9897827665   -1.0954504815   -0.2076457641
C       -0.4196196453   -1.4141817586   -0.4544709946
C       -1.3835027351    0.3435107951   -0.0365699840
C       -0.5553784183    1.5847959357   -0.2233577436
N        0.8201723405    1.4994668684   -0.0776353291
H        2.6062778258    0.4136976157    0.2236411352
H        1.7180598150   -1.8922600227   -0.0262553229
H       -1.0064789569   -1.8494371764   -1.3736469944
H       -2.4480037480    0.0707850399   -0.2250295434
H       -0.9823861616    2.5825511434   -0.1910767668
C       -0.3026463564    0.1234414949    0.9638720311
H       -0.5954951165   -0.6516161368    1.6603600641
13   
C5H5N+CH->C6H6N atoms 1-13 frame 110 charge -0.000 sz -1.000 sz^2 0.501
C        1.5576456654    0.2838968951   -0.0284530809
C        0.9855133763   -1.1034895159   -0.2173225049
C       -0.4136999591   -1.4208137952   -0.4713200058
C       -1.3817040688    0.3519278734   -0.0429737430
C       -0.5595832598    1.5950155855   -0.2346368729
N        0.8229335279    1.5002479915   -0.0764491812
H        2.5966762922    0.4115546012    0.2452241676
H        1.7177227885   -1.8920129586   -0.0383812699
H       -1.0016648835   -1.8501466406   -1.3623858095
H       -2.4483974112    0.0592092628   -0.2043322972
H       -0.9761419084    2.5933772233   -0.2013906196
C       -0.3042251602    0.1315283048    0.9701926552
H       -0.5950749994   -0.6602948272    1.6622285623
13   
C5H5N+CH->C6H6N atoms 1-13 frame 111 charge +0.000 sz -1.000 sz^2 0.507
C        1.5550891419    0.2826929115   -0.0244919665
C        0.9808076359   -1.1111268683   -0.2276947098
C       -0.4079705234   -1.4269136718   -0.4893648146
C       -1.3794811645    0.3603408686   -0.0501083871
C       -0.5636285309    1.6055398479   -0.2462898640
N        0.8251146020    1.5013325306   -0.0752950137
H        2.5863057930    0.4087670514    0.2678475691
H        1.7167931627   -1.8922612671   -0.0525301324
H       -0.9935352632   -1.8503531819   -1.3491418532
H       -2.4464703097    0.0488898541   -0.1833248453
H       -0.9699576059    2.6047481515   -0.2127621689
C       -0.3077917531    0.1383807357    0.9765335250
H       -0.5952751849   -0.6700369621    1.6666226615
13   
C5H5N+CH->C6H6N atoms 1-13 frame 112 charge +0.000 sz -1.000 sz^2 0.520
C        1.5514760148    0.2811604814   -0.0202723728
C        0.9757300170   -1.1182948007   -0.2386080517
C       -0.4023030602   -1.4324439382   -0.5082413008
C       -1.3768265213    0.3686515831   -0.0576921475
C       -0.5675129444    1.6163037029   -0.2582067025
N        0.8266132661    1.5027767985   -0.0742020104
H        2.5753925248    0.4054181953    0.2914571623
H        1.7156037847   -1.8931085456   -0.0685539167
H       -0.9828616287   -1.8509493641   -1.3347902996
H       -2.4421341046    0.0398962223   -0.1619135023
H       -0.9640636371    2.6167942201   -0.2251698845
C       -0.3132368153    0.1440805143    0.9830583175
H       -0.5958768957   -0.6802850693    1.6731347090
13   
C5H5N+CH->C6H6N atoms 1-13 frame 113 charge +0.000 sz -1.000 sz^2 0.537
C        1.5467751954    0.2794051859   -0.0157407024
C        0.9703869807   -1.1249218775   -0.2498553699
C       -0.3965038902   -1.4373529987   -0.5275017797
C       -1.3737013192    0.3767668885   -0.0654243738
C       -0.5712232637    1.6272432291   -0.2702803759
N        0.8273601939    1.5046526553   -0.0732001318
H        2.5641228024    0.4016306514    0.3159908884
H        1.7145061595   -1.8945861945   -0.0862379559
H       -0.9706788432   -1.8530262933   -1.3204864036
H       -2.4353663056    0.0322726147   -0.1399941247
H       -0.9586596216    2.6296011051   -0.2386042488
C       -0.3204041075    0.1487402247    0.9899541015
H       -0.5966139810   -0.6904251906    1.6813804767
13   
From optimize.out: Frame 1 / 24, Energy=    -286.5632287070
C        1.5410049108    0.2775634781   -0.0108181379
C        0.9649305051   -1.1309323206   -0.2611833113
C       -0.3903183346   -1.4415729818   -0.5466323168
C       -1.3700329697    0.3846063564   -0.0729973440
C       -0.5747263619    1.6383003761   -0.2824097748
N        0.8273241016    1.5070486030   -0.0723179823
H        2.5526250283    0.3975628834    0.3413720614
H        1.7138498395   -1.8966436042   -0.1053091425
H       -0.9582510162   -1.8578426503   -1.3076223151
H       -2.4262117440    0.0260449035   -0.1174670963
H       -0.9539006114    2.6431949288   -0.2530713775
C       -0.3290903414    0.1525012657    0.9974220562
H       -0.5972030062   -0.6998312380    1.6910346810
13   
From optimize.out: Frame 2 / 24, Energy=    -286.6491115880
C        1.4910198764    0.2969068084    0.0683068755
C        0.8304715419   -1.0155583860   -0.2854077352
C       -0.5065497887   -1.1322391598   -0.7019586482
C       -1.1612109708    0.1757074317   -0.0305042998
C       -0.5106795975    1.4911709989   -0.3327222505
N        0.8443655876    1.5345979752   -0.0556590553
H        2.4772727149    0.3403228306    0.5045794390
H        1.4725391699   -1.8718601715   -0.1080153742
H       -1.0323718794   -1.4571387943   -1.5504124974
H       -2.1612276369   -0.2904549577   -0.1124706684
H       -0.9977853588    2.4459874898   -0.4422354890
C       -0.2450841306    0.1421077949    1.1469602671
H       -0.5007595279   -0.6595498602    1.8995394364
13   
From optimize.out: Frame 3 / 24, Energy=    -286.6721216232
C        1.3967880376    0.2704914147    0.1314762646
C        0.7855254445   -1.0041097632   -0.3293963742
C       -0.4607030269   -1.0378504089   -0.9395801444
C       -1.1098613094    0.1196997342    0.0817856382
C       -0.4902050746    1.4025519549   -0.3792788528
N        0.8142128599    1.5132277942   -0.0890424849
H        2.3301688963    0.2893235792    0.6768699117
H        1.3739522799   -1.8891040214   -0.0968823294
H       -0.8351664427   -1.3392980971   -1.8878361076
H       -2.1138346908   -0.3262143617    0.0433748509
H       -0.9962332206    2.3319040840   -0.5988529555
C       -0.2194360174    0.1942934581    1.2800266000
H       -0.4752077357   -0.5249153672    2.1073359833
13   
From optimize.out: Frame 4 / 24, Energy=    -286.7013606847
C        1.3366750495    0.2758208824    0.1396561769
C        0.7541036770   -0.9803773886   -0.2962776747
C       -0.4949971090   -0.9452699717   -0.8296900705
C       -1.0455103858    0.1006998910    0.0356722333
C       -0.4524723393    1.3937400242   -0.4045676487
N        0.7933713095    1.5212328157   -0.1167391178
H        2.2808310763    0.2903169364    0.6721604628
H        1.3387010457   -1.8809790716   -0.0942053824
H       -0.9035217462   -1.2424536229   -1.7857188481
H       -2.0589405146   -0.2965611310   -0.0225245885
H       -0.9664829611    2.3269948665   -0.6136032537
C       -0.1653882099    0.0914924296    1.2595966835
H       -0.4163688920   -0.6546566601    2.0562410278
13   
From optimize.out: Frame 5 / 24, Energy=    -286.7106062759
C        1.3517130634    0.2587342270    0.0854382700
C        0.8857034341   -1.0238586758   -0.2897626624
C       -0.3858011125   -1.0500292270   -0.6598186093
C       -1.1491239724    0.2097180591    0.0089736300
C       -0.4692759799    1.4511398595   -0.3834012401
N        0.7538862575    1.4915182088   -0.1556622350
H        2.3402691639    0.3322278027    0.5312757028
H        1.5556957787   -1.8822793048   -0.1538684432
H       -0.8939242724   -1.3834048833   -1.5751120582
H       -2.1946070822   -0.0514096587   -0.0547175427
H       -0.9025066860    2.4392158400   -0.5513177732
C       -0.2890974669   -0.0129092291    1.2270517399
H       -0.6029311255   -0.7786630185    1.9709212213
13   
From optimize.out: Frame 6 / 24, Energy=    -286.7440823765
C        1.2997352935    0.2671297047    0.1487216354
C        0.8376543723   -1.0146944217   -0.2906051585
C       -0.4421313341   -1.0747268895   -0.7004881405
C       -1.0948940494    0.2162676779    0.0181088068
C       -0.4614857343    1.4687608816   -0.4123188573
N        0.7710110137    1.5185479352   -0.1770894866
H        2.2799340479    0.3130809543    0.6172635868
H        1.5136239500   -1.8683658937   -0.1643592776
H       -0.9087260707   -1.4476789431   -1.6217971898
H       -2.1430175330   -0.0398002740   -0.0138232856
H       -0.9234236895    2.4414046154   -0.6005381310
C       -0.2239000126   -0.0051209593    1.2244020667
H       -0.5043802539   -0.7748043878    1.9725234311
13   
From optimize.out: Frame 7 / 24, Energy=    -286.7734394401
C        1.2530334310    0.2533767705    0.2391517219
C        0.7995316998   -1.0178322887   -0.2932265624
C       -0.4685794984   -1.0067480504   -0.7951370818
C       -1.0634173791    0.1870220030    0.0512693870
C       -0.4784012838    1.4378527293   -0.4655920417
N        0.7786027647    1.5135300341   -0.2019070516
H        2.2064005568    0.2734515274    0.7610806384
H        1.4366089515   -1.8970083543   -0.1597982249
H       -0.8974200414   -1.3466235051   -1.7398407949
H       -2.1181609147   -0.0623216020    0.0778175711
H       -0.9723901130    2.3843636037   -0.6977972803
C       -0.1322650270    0.0148671933    1.2215577296
H       -0.3435431463   -0.7339300608    2.0024219894
13   
From optimize.out: Frame 8 / 24, Energy=    -286.7923231042
C        1.1928289940    0.2501128285    0.3017751249
C        0.7801193563   -1.0248903102   -0.2931830327
C       -0.4906921147   -1.0160680421   -0.8069253662
C       -1.0429336540    0.1978036387    0.0567485514
C       -0.4745918361    1.4481685516   -0.4897354674
N        0.7818897909    1.5133648320   -0.2341150311
H        2.1415903405    0.2715204469    0.8318773560
H        1.4237926267   -1.8996739747   -0.1744317726
H       -0.9080678354   -1.3714093270   -1.7497427233
H       -2.1039271831   -0.0240914703    0.1208271334
H       -0.9714523738    2.3877141091   -0.7400584850
C       -0.0751961786    0.0080063274    1.1978383338
H       -0.2533599327   -0.7405576098    1.9791253790
13   
From optimize.out: Frame 9 / 24, Energy=    -286.8090541289
C        1.1836854899    0.2401503876    0.3651723726
C        0.8205286165   -1.0253784376   -0.3286428635
C       -0.4794767313   -1.0173491841   -0.8012732105
C       -1.0642513433    0.1905278628    0.0664673015
C       -0.4740844373    1.4344804977   -0.4993848095
N        0.7917449661    1.4938853256   -0.2435171009
H        2.1470975371    0.2776146345    0.8680850148
H        1.4940242518   -1.8822580837   -0.2868147450
H       -0.9147324748   -1.3680715416   -1.7338181212
H       -2.1378490946    0.0186558352    0.1333292089
H       -0.9616848045    2.3640066818   -0.7952040616
C       -0.1092089620    0.0025881457    1.2336393958
H       -0.2957930137   -0.7288521238    2.0219616187
13   
From optimize.out: Frame 10 / 24, Energy=    -286.8230493891
C        1.1520354176    0.2121804335    0.4260146214
C        0.8629378830   -1.0253602039   -0.3882170216
C       -0.4583630501   -1.0319629885   -0.7923633225
C       -1.0693504823    0.1853518177    0.0694572429
C       -0.4676723244    1.4338470840   -0.4989288988
N        0.7889992471    1.4832807537   -0.2153905912
H        2.1227490992    0.2659727470    0.9141484028
H        1.5708047415   -1.8514854875   -0.4336156221
H       -0.9180613390   -1.3899047879   -1.7077670927
H       -2.1506538544    0.0376894557    0.1105107569
H       -0.9533392009    2.3445897259   -0.8472897901
C       -0.1438010547    0.0258878754    1.2844235656
H       -0.3362850826   -0.6900864251    2.0790177494
13   
From optimize.out: Frame 11 / 24, Energy=    -286.8332354354
C        1.1403361635    0.1972769762    0.4779945613
C        0.8691182578   -1.0311780951   -0.4037428274
C       -0.4567707971   -0.9829361953   -0.7527843013
C       -1.0641504359    0.1686500008    0.0482887635
C       -0.4575830267    1.4411724921   -0.5051358112
N        0.7986742418    1.4783484007   -0.2264016025
H        2.1179221660    0.2918673552    0.9480773819
H        1.5649200404   -1.8565051629   -0.5165320164
H       -0.9515399815   -1.3752611063   -1.6314063864
H       -2.1512756382    0.0470115064    0.0910278379
H       -0.9512038697    2.3367633247   -0.8760629320
C       -0.1401197519    0.0047586411    1.2807869191
H       -0.3183273685   -0.7199681377    2.0658904135
13   
From optimize.out: Frame 12 / 24, Energy=    -286.8405214169
C        1.0999001387    0.1743546155    0.5165371028
C        0.8997733995   -1.0049172401   -0.4556662496
C       -0.4162839454   -1.0206098412   -0.7519858152
C       -1.0934203782    0.1761766379    0.0625377015
C       -0.4350050618    1.4294527100   -0.5117306527
N        0.8143411246    1.4576652623   -0.2279326787
H        2.0739325993    0.2725889101    0.9940849487
H        1.6372980968   -1.7773936109   -0.6382319814
H       -0.9146810506   -1.4717727912   -1.6007339141
H       -2.1827093822    0.1094533969    0.1204340014
H       -0.9100005217    2.3213958697   -0.9129418390
C       -0.1855577021    0.0210942330    1.3035737564
H       -0.3875873171   -0.6874881520    2.1020556200
13   
From optimize.out: Frame 13 / 24, Energy=    -286.8455816218
C        1.1088122145    0.1739908685    0.5174675017
C        0.8948151085   -1.0053107353   -0.4637891685
C       -0.4204967530   -1.0136320621   -0.7512815922
C       -1.0838044150    0.1683471552    0.0459736450
C       -0.4277699548    1.4452257885   -0.4999875647
N        0.8154375885    1.4829888817   -0.2044190361
H        2.0712906880    0.2616268673    1.0191502843
H        1.6421283693   -1.7523578149   -0.7019583738
H       -0.9296735200   -1.5432516188   -1.5467066195
H       -2.1749238465    0.1286899394    0.1064868313
H       -0.9114072966    2.3177196133   -0.9313606793
C       -0.1944970984    0.0270075654    1.3106785847
H       -0.3899110843   -0.6910444481    2.0997461870
13   
From optimize.out: Frame 14 / 24, Energy=    -286.8484613114
C        1.0927516073    0.1711224870    0.5491877023
C        0.8727388404   -0.9924957520   -0.4353324376
C       -0.4285134651   -0.9816258825   -0.7655376048
C       -1.0787702274    0.1518027704    0.0444164759
C       -0.4143730824    1.4352128383   -0.4887055244
N        0.8245864094    1.4762684529   -0.1970318842
H        2.0803305397    0.2431431647    1.0006272043
H        1.6388343679   -1.6993376587   -0.7334581161
H       -0.9251030372   -1.5534815795   -1.5423001303
H       -2.1676899107    0.1347338599    0.1149317309
H       -0.9027158640    2.2826943313   -0.9642855219
C       -0.1997441224    0.0269670495    1.3145902445
H       -0.3923320556   -0.6950040813    2.1028978612
13   
From optimize.out: Frame 15 / 24, Energy=    -286.8495260980
C        1.0991234111    0.1830947114    0.5167339459
C        0.8672383258   -0.9996711867   -0.4284177353
C       -0.4374060595   -0.9973267084   -0.7420060665
C       -1.0810158972    0.1741832560    0.0207150612
C       -0.4092095045    1.4748271720   -0.4751198065
N        0.8413642068    1.4975450315   -0.2250148605
H        2.0480679041    0.2398052417    1.0458020953
H        1.6357852603   -1.6976841705   -0.7426713783
H       -0.9543395584   -1.6441818102   -1.4441114759
H       -2.1658198529    0.1748620935    0.1231497643
H       -0.9077310060    2.3193558276   -0.9473437687
C       -0.1799356278    0.0139319366    1.2659269727
H       -0.3561216017   -0.7387413944    2.0323572525
13   
From optimize.out: Frame 16 / 24, Energy=    -286.8509243224
C        1.1053681517    0.1670927745    0.5313567704
C        0.8857758978   -0.9858758744   -0.4449681175
C       -0.4256687238   -0.9883315083   -0.7357010454
C       -1.0845091821    0.1611391940    0.0291277027
C       -0.3990401517    1.4543568034   -0.4716223475
N        0.8449704086    1.4887634098   -0.1897325161
H        2.0547560902    0.2111651197    1.0617449333
H        1.6682841039   -1.6181418695   -0.8508683051
H       -0.9616466153   -1.6454506423   -1.4124607721
H       -2.1714015558    0.1619221644    0.1021880936
H       -0.8923411618    2.2784189049   -0.9856786410
C       -0.2204751682    0.0341902171    1.2995663147
H       -0.4040720937   -0.7192486934    2.0670479298
13   
From optimize.out: Frame 17 / 24, Energy=    -286.8511511751
C        1.0928076508    0.1776513918    0.5368860679
C        0.8785264355   -0.9699449681   -0.4602782813
C       -0.4277599708   -0.9834442743   -0.7702157526
C       -1.0789604394    0.1640794755    0.0415381326
C       -0.3995440901    1.4560632880   -0.4684456462
N        0.8394921486    1.5048107808   -0.1797689161
H        2.0414953525    0.1918133835    1.0715211459
H        1.6554472781   -1.6345729030   -0.8215483138
H       -0.9515281917   -1.6571584650   -1.4392432095
H       -2.1661336168    0.1724143193    0.1236238593
H       -0.8931177444    2.2601446919   -1.0115911680
C       -0.2065185056    0.0352647951    1.3059280817
H       -0.3842063066   -0.7171215154    2.0715940001
13   
From optimize.out: Frame 18 / 24, Energy=    -286.8514974168
C        1.0946645375    0.1805574565    0.5371582698
C        0.8719683631   -0.9856323212   -0.4327165494
C       -0.4294237520   -0.9882978193   -0.7482922022
C       -1.0775237028    0.1671707481    0.0424323295
C       -0.3999887944    1.4565987494   -0.4670181070
N        0.8453282445    1.4883423433   -0.2059536916
H        2.0483441736    0.2021465634    1.0626573043
H        1.6533465609   -1.6304388056   -0.8201437741
H       -0.9499670330   -1.6284496617   -1.4529218663
H       -2.1645453580    0.1706341549    0.1234603035
H       -0.9003010232    2.2608119414   -1.0036547185
C       -0.2075969137    0.0333301721    1.3035931679
H       -0.3843053026   -0.7267735213    2.0613995341
13   
From optimize.out: Frame 19 / 24, Energy=    -286.8515658299
C        1.1011278285    0.1814190136    0.5352396124
C        0.8774021942   -0.9763214541   -0.4441767954
C       -0.4322722701   -0.9884563411   -0.7458077785
C       -1.0803574389    0.1725428756    0.0405367102
C       -0.3977318459    1.4595960686   -0.4665644637
N        0.8512548135    1.4892839771   -0.2025556314
H        2.0535878743    0.2061970275    1.0623128998
H        1.6561351053   -1.6300921945   -0.8220358841
H       -0.9618542248   -1.6493190357   -1.4235078553
H       -2.1671470932    0.1756163129    0.1225472080
H       -0.9006687755    2.2644968220   -1.0001472825
C       -0.2117123602    0.0318224139    1.2964229313
H       -0.3877638072   -0.7367854859    2.0477363293
13   
From optimize.out: Frame 20 / 24, Energy=    -286.8516119950
C        1.0985597678    0.1816849359    0.5374502942
C        0.8764016321   -0.9777836055   -0.4449181654
C       -0.4338709450   -0.9825251038   -0.7444164102
C       -1.0777819392    0.1697327410    0.0469114005
C       -0.3940282628    1.4531312056   -0.4708548709
N        0.8520383970    1.4908648909   -0.1999421759
H        2.0431912654    0.2030871847    1.0786192079
H        1.6557947769   -1.6215326292   -0.8376341796
H       -0.9649200191   -1.6325281573   -1.4309862011
H       -2.1648644616    0.1734315582    0.1273362431
H       -0.8963424380    2.2482895639   -1.0192941054
C       -0.2089005050    0.0312034409    1.3029123246
H       -0.3852772685   -0.7370560253    2.0548166383
13   
From optimize.out: Frame 21 / 24, Energy=    -286.8516375257
C        1.0961185300    0.1826277574    0.5385357687
C        0.8762455774   -0.9773391971   -0.4451917033
C       -0.4312049445   -0.9830352589   -0.7478947001
C       -1.0759129178    0.1711642525    0.0460821117
C       -0.3988041838    1.4596700380   -0.4640767023
N        0.8493615560    1.4890922530   -0.2036223001
H        2.0451934505    0.1963610464    1.0723345729
H        1.6553277327   -1.6275974948   -0.8277822527
H       -0.9602490727   -1.6332574696   -1.4359482744
H       -2.1632157114    0.1725604356    0.1254180839
H       -0.9011392887    2.2524398749   -1.0159940569
C       -0.2097969389    0.0351539919    1.3056933511
H       -0.3819237888   -0.7378402292    2.0524461014
13   
From optimize.out: Frame 22 / 24, Energy=    -286.8516562724
C        1.0986757192    0.1845521359    0.5373457495
C        0.8752268796   -0.9762268972   -0.4441847991
C       -0.4328371684   -0.9841092263   -0.7461269351
C       -1.0774328447    0.1721383324    0.0474168886
C       -0.3964516449    1.4570689922   -0.4668843846
N        0.8518609567    1.4881452622   -0.2065076561
H        2.0470926461    0.2019821730    1.0723141383
H        1.6537662298   -1.6273609152   -0.8261351237
H       -0.9610143755   -1.6352715518   -1.4341967671
H       -2.1643819905    0.1761701967    0.1294895999
H       -0.8996158336    2.2515527158   -1.0153963204
C       -0.2105092929    0.0324196041    1.3034076183
H       -0.3843792810   -0.7410608217    2.0494579915
13   
From optimize.out: Frame 23 / 24, Energy=    -286.8516580738
C        1.0984280998    0.1833698482    0.5383745806
C        0.8752620403   -0.9764411698   -0.4447151440
C       -0.4341580857   -0.9841728305   -0.7444337796
C       -1.0770136966    0.1721538520    0.0477733834
C       -0.3961764528    1.4568939510   -0.4667576251
N        0.8526068123    1.4877831580   -0.2047264531
H        2.0458961776    0.2017927456    1.0748897167
H        1.6543758370   -1.6244571172   -0.8307698462
H       -0.9636497254   -1.6338623538   -1.4326992095
H       -2.1641722463    0.1734137747    0.1279384290
H       -0.8990312387    2.2499896698   -1.0175988039
C       -0.2095794365    0.0337633389    1.3033542732
H       -0.3827880851   -0.7402268669    2.0493704784
