13   
From optimize.out: Frame 1 / 2, Energy=    -286.8723920416
C        1.3518348802    0.6300180924   -0.8207201120
C       -0.0469536888   -1.1294359329    0.2554017478
C       -1.2669836185   -1.1471279889    0.8845487930
C       -1.7778327050    0.1879828857    0.8733815310
C       -0.8505976165    0.9745854136    0.2378035297
N        0.2130458096    0.1704271542   -0.1427021702
H        1.3223076348    1.7056819527   -1.0164330487
H        0.6663571469   -1.9129104959    0.0475368735
H       -1.7438704792   -2.0201679127    1.3097119443
H       -2.7185409356    0.5247103126    1.2866645691
H       -0.8405711559    2.0331380075    0.0187636744
C        2.3793635754   -0.0974870051   -1.2112937241
H        3.3124411527    0.0805855165   -1.7226636078
13   
From optimize.out: Frame 2 / 3, Energy=    -286.8363743846
C        4.4483117052    0.6459393816   -3.6514677194
C       -0.8333674815   -0.1425073700    1.1198437923
C       -1.9870916853   -0.9980632637    0.8556235672
C       -3.0320178741   -0.3915008652    1.4865555453
C       -2.4629495500    0.8029127967    2.1048927229
N       -1.1432294501    0.9319978900    1.8704967634
H        4.2132539085    1.2685501607   -4.4850846797
H        0.1831835466   -0.3059070486    0.7744448836
H       -1.9868919112   -1.9133358502    0.2777549023
H       -4.0665057213   -0.7065157366    1.5336664595
H       -2.9977410894    1.5404849824    2.6961110817
C        4.7143998261   -0.0553084007   -2.7084593842
H        4.9506457767   -0.6767466766   -1.8743779348
