13   
From optimize.out: Frame 1 / 4, Energy=    -286.7674702274
C        0.6455232724   -0.6307381018   -0.1578628102
C        2.1508691917   -0.6164544241   -0.0659897120
C        1.6140500978   -1.7879296993   -0.1723049311
C       -1.8195522293    1.1302946111   -0.0187399738
C       -1.1651661912    0.3077349072    1.0464160902
N       -0.1185780605   -0.4222655639    1.0324703093
H        0.1627977157   -0.3273151687   -1.0921254974
H        3.0149516643    0.0186619170    0.0653946067
H        1.6969695952   -2.8638913167   -0.2042568870
H       -2.8840797087    1.2945177200    0.1714752514
H       -1.7040315566    0.3526681359    1.9989322650
C       -1.2834849863    1.7103654072   -1.0743443976
H       -0.3102688045    1.8343515761   -1.5290643137
13   
From optimize.out: Frame 2 / 4, Energy=    -286.7674786720
C        0.6413085743   -0.6361414323   -0.1596217059
C        2.1462310193   -0.6117670990   -0.0674348712
C        1.6169890713   -1.7868273127   -0.1715737870
C       -1.8179928369    1.1333061460   -0.0179305383
C       -1.1668020664    0.3057161372    1.0459127112
N       -0.1221874525   -0.4271021347    1.0311704373
H        0.1569873988   -0.3392727033   -1.0954985072
H        3.0063972057    0.0285715409    0.0627238900
H        1.7072969189   -2.8622315360   -0.2017318611
H       -2.8804610845    1.3102875762    0.1764128985
H       -1.7069061649    0.3467790281    1.9978846843
C       -1.2776257558    1.7115829125   -1.0723171052
H       -0.3032348274    1.8270988771   -1.5279962455
13   
From optimize.out: Frame 3 / 4, Energy=    -286.7674816576
C        0.6367647462   -0.6396223688   -0.1610649285
C        2.1414346023   -0.6056719226   -0.0684118562
C        1.6194013637   -1.7839920790   -0.1724344172
C       -1.8150893763    1.1381968519   -0.0148985920
C       -1.1703811947    0.3016821234    1.0459451461
N       -0.1282008124   -0.4346455326    1.0296722992
H        0.1509916005   -0.3465093805   -1.0975771948
H        2.9980093925    0.0393387548    0.0617829175
H        1.7169250125   -2.8587681274   -0.2027083935
H       -2.8752887806    1.3274617742    0.1814572390
H       -1.7098796900    0.3425893372    1.9982371461
C       -1.2697389381    1.7093028734   -1.0706974006
H       -0.2949479256    1.8106376960   -1.5293019653
