13   
From optimize.out: Frame 1 / 2, Energy=    -286.8516702428
C        1.1184279548    0.2253674243    0.4756302396
C        0.8712261597   -0.9806072958   -0.4429640738
C       -0.4497211412   -1.0235322974   -0.6802608896
C       -1.0764552804    0.1564588221    0.0909574608
C       -0.4450241850    1.4279370346   -0.5118170543
N        0.8139983116    1.4908555697   -0.3135919152
H        2.0889981005    0.2828095116    0.9660837992
H        1.6435544508   -1.6346689070   -0.8326628757
H       -0.9977524283   -1.7136227493   -1.3124711005
H       -2.1579967911    0.1432016864    0.2262937224
H       -0.9878583205    2.1892739038   -1.0695322310
C       -0.1489888581    0.0891851952    1.3085406563
H       -0.2724079727   -0.6526578981    2.0957942617
