13   
Frame   0 IRC: Energy =  -286.8764979468 ; +0.0000 kcal/mol
C        1.6725149521    0.4115838399   -0.2228126392
C        1.1374037140   -0.8319380119   -0.2301072648
C       -0.2975598819   -1.0745358811   -0.0131968397
C       -1.1635911106    0.3137787470    0.0430961933
C       -0.3580440298    1.5155271317   -0.2391698249
N        0.9295246944    1.5916632643   -0.2731297555
H        2.7448866906    0.5528844683   -0.3179307167
H        1.7717766433   -1.6945287306   -0.4168775230
H       -0.7295909377   -1.9533295151   -0.4943953016
H       -2.1764526876    0.3363431216   -0.3629426391
H       -0.9144111912    2.4190955128   -0.4963983160
C       -0.9360196711   -0.5600648597    1.1952656856
H       -1.6804371850   -1.0264790875    1.8285989419
13   
Frame   1 IRC: Energy =  -286.8761580307 ; +0.2133 kcal/mol
C        1.6765045680    0.4102349628   -0.2496848312
C        1.1463531062   -0.8329693213   -0.2221514916
C       -0.2873626948   -1.0737414507    0.0171398313
C       -1.1628426907    0.2970819498    0.0087337017
C       -0.3548569258    1.5140774984   -0.2157589451
N        0.9316028491    1.5937675363   -0.2516581928
H        2.7425147832    0.5543772074   -0.3972777511
H        1.7764858127   -1.6958891711   -0.4206889012
H       -0.7071756091   -1.9726914955   -0.4371582245
H       -2.1540837183    0.3084914073   -0.4474813150
H       -0.9135433786    2.4349575844   -0.3954460235
C       -0.9666469002   -0.5399466581    1.1955589101
H       -1.7269492016   -0.9977500499    1.8158732326
13   
Frame   2 IRC: Energy =  -286.8751527353 ; +0.8441 kcal/mol
C        1.6766621677    0.4064793761   -0.2702914518
C        1.1525483779   -0.8362166163   -0.2207743404
C       -0.2818972384   -1.0715243188    0.0353007882
C       -1.1620408751    0.2757743697   -0.0370954532
C       -0.3551611731    1.5090152325   -0.1950722671
N        0.9300912278    1.5921865719   -0.2206923924
H        2.7362559033    0.5570504615   -0.4544147631
H        1.7786164919   -1.6991959793   -0.4310211212
H       -0.6941212009   -1.9877443854   -0.3904149663
H       -2.1285562069    0.2724861459   -0.5443453882
H       -0.9165225131    2.4410611538   -0.2887124043
C       -0.9902819537   -0.5137787386    1.1866689184
H       -1.7455930074   -0.9455932728    1.8308648416
13   
Frame   3 IRC: Energy =  -286.8733380457 ; +1.9829 kcal/mol
C        1.6734862857    0.4031615427   -0.2836349276
C        1.1564156661   -0.8418320005   -0.2236140519
C       -0.2792403439   -1.0725002234    0.0425900724
C       -1.1616216848    0.2525576907   -0.0886213272
C       -0.3584472968    1.5008040910   -0.1754130518
N        0.9260003621    1.5858832408   -0.1830438413
H        2.7292323301    0.5616762107   -0.4938108208
H        1.7803897456   -1.7037853094   -0.4476123696
H       -0.6856799284   -2.0013256955   -0.3555447723
H       -2.1034296459    0.2366649998   -0.6422183463
H       -0.9237734719    2.4341428442   -0.1825816823
C       -1.0091576381   -0.4851190024    1.1694559918
H       -1.7441743799   -0.8703283888    1.8640491267
13   
Frame   4 IRC: Energy =  -286.8707141487 ; +3.6294 kcal/mol
C        1.6721665241    0.3992636806   -0.2939255366
C        1.1605931140   -0.8470787612   -0.2291589368
C       -0.2781633593   -1.0729896084    0.0469233884
C       -1.1632225313    0.2312059820   -0.1409754518
C       -0.3626327805    1.4864762195   -0.1559919437
N        0.9207355101    1.5768415451   -0.1431930181
H        2.7199089502    0.5678468345   -0.5221022123
H        1.7814772669   -1.7075936953   -0.4680430519
H       -0.6782958082   -2.0169105106   -0.3257397968
H       -2.0787380248    0.2055444974   -0.7331753281
H       -0.9347041384    2.4162660114   -0.0785701199
C       -1.0265942443   -0.4597538851    1.1446922693
H       -1.7325304785   -0.7791183099    1.8992597384
13   
Frame   5 IRC: Energy =  -286.8673688319 ; +5.7286 kcal/mol
C        1.6701698432    0.3954861653   -0.3036440330
C        1.1652576924   -0.8514490683   -0.2394788536
C       -0.2765352695   -1.0728688018    0.0476133074
C       -1.1636565158    0.2100116102   -0.1921890731
C       -0.3688371883    1.4712437821   -0.1356608300
N        0.9150801872    1.5643126740   -0.1051676251
H        2.7144349923    0.5759400098   -0.5405533056
H        1.7813638160   -1.7108496594   -0.4920168532
H       -0.6714883671   -2.0335687727   -0.2892114611
H       -2.0598972502    0.1791567444   -0.8155779349
H       -0.9465589763    2.3846412253    0.0260883009
C       -1.0429429130   -0.4327043251    1.1171408937
H       -1.7163900509   -0.6793515837    1.9226574676
13   
Frame   6 IRC: Energy =  -286.8633735016 ; +8.2357 kcal/mol
C        1.6702237250    0.3932725268   -0.3147882348
C        1.1693017957   -0.8554498550   -0.2574262836
C       -0.2738010991   -1.0685725057    0.0440951573
C       -1.1658164922    0.1897456634   -0.2448219381
C       -0.3755425474    1.4517274317   -0.1148659132
N        0.9093009742    1.5483267983   -0.0716257146
H        2.7139000914    0.5848806775   -0.5459286011
H        1.7809048497   -1.7156521127   -0.5161084094
H       -0.6687025191   -2.0467779744   -0.2392844334
H       -2.0514630893    0.1564944930   -0.8846539999
H       -0.9603055399    2.3394673973    0.1317045397
C       -1.0488430637   -0.3956065537    1.0883913104
H       -1.6991570851   -0.5818559866    1.9253125209
13   
Frame   7 IRC: Energy =  -286.8586463774 ; +11.2020 kcal/mol
C        1.6724294231    0.3920112107   -0.3255616430
C        1.1722834410   -0.8594307405   -0.2827339825
C       -0.2701106833   -1.0565072594    0.0338793367
C       -1.1727918554    0.1685306232   -0.2995873321
C       -0.3851146097    1.4216492307   -0.0830533540
N        0.9048981014    1.5275374753   -0.0439645766
H        2.7179480389    0.5916768524   -0.5394067929
H        1.7806950850   -1.7234833437   -0.5327431195
H       -0.6720184114   -2.0476107389   -0.1814600671
H       -2.0600399904    0.1380423864   -0.9384051699
H       -0.9761959267    2.2830030559    0.2275121173
C       -1.0343673645   -0.3366371204    1.0604975412
H       -1.6776152481   -0.4987816316    1.9050270425
13   
Frame   8 IRC: Energy =  -286.8546252799 ; +13.7253 kcal/mol (Transition State)
C        1.6737851193    0.3984775603   -0.3284627633
C        1.1686452051   -0.8633582878   -0.2998212247
C       -0.2670945783   -1.0425847967    0.0209400574
C       -1.1897790819    0.1423543742   -0.3500849840
C       -0.4063240565    1.3568850011    0.0067291718
N        0.9114319211    1.5070911238   -0.0422474418
H        2.7232272699    0.5924406900   -0.5324290643
H        1.7795326283   -1.7285108750   -0.5378196166
H       -0.6765705473   -2.0389682953   -0.1483001142
H       -2.0795104542    0.1260074174   -0.9744846886
H       -0.9850897238    2.2391359201    0.2770313735
C       -1.0005721985   -0.2432748404    1.0354491205
H       -1.6516815031   -0.4456949916    1.8735001745
13   
Frame   9 IRC: Energy =  -286.8638713582 ; +7.9233 kcal/mol
C        1.6750040922    0.4131688712   -0.3235036554
C        1.1607012647   -0.8703251769   -0.3056233406
C       -0.2701566698   -1.0348013564    0.0047289687
C       -1.2021409459    0.1191194463   -0.3957038580
C       -0.4386343241    1.2801477721    0.1213888010
N        0.9278123013    1.4938764335   -0.0568136903
H        2.7274600964    0.5920777105   -0.5292413046
H        1.7778230635   -1.7318320475   -0.5396006435
H       -0.6813397663   -2.0344149290   -0.1326133006
H       -2.0955024563    0.1163498259   -0.9980885723
H       -0.9889162067    2.2076730372    0.3003327451
C       -0.9657012151   -0.1442570062    1.0103523307
H       -1.6264092337   -0.4067825807    1.8443855196
13   
Frame  10 IRC: Energy =  -286.8760116659 ; +0.3051 kcal/mol
C        1.6769284061    0.4199088666   -0.3136797411
C        1.1561890148   -0.8753125380   -0.3091111916
C       -0.2800464009   -1.0256622780   -0.0222812749
C       -1.2051855260    0.0998127512   -0.4477641664
C       -0.4573316897    1.2173639946    0.2216712233
N        0.9272567545    1.4823524353   -0.0555230046
H        2.7304089999    0.5936522914   -0.5298659986
H        1.7746938632   -1.7369433021   -0.5380041909
H       -0.6905332619   -2.0295832982   -0.1080967127
H       -2.1165576426    0.1056642383   -1.0226483903
H       -0.9991231237    2.1572259110    0.3366091757
C       -0.9308179446   -0.0659403372    0.9805230632
H       -1.5858814492   -0.3425387349    1.8081712088
13   
Frame  11 IRC: Energy =  -286.8794300000 ; -1.8399 kcal/mol
C        1.6749549003    0.4170871134   -0.3054238537
C        1.1548265372   -0.8814199123   -0.3285224394
C       -0.2857189597   -1.0318745048   -0.0502264629
C       -1.2073064316    0.0959004452   -0.4918083802
C       -0.4573778047    1.2006717518    0.2242648476
N        0.9257211700    1.4777991828   -0.0368144610
H        2.7287712744    0.5990514800   -0.5130488676
H        1.7777006663   -1.7451580808   -0.5385769440
H       -0.7018564204   -2.0366451577   -0.0730624799
H       -2.1282680814    0.0899974667   -1.0582438908
H       -1.0277352348    2.1030104225    0.4315867855
C       -0.9130136008   -0.0578398071    0.9380580242
H       -1.5406980150   -0.2305803995    1.8018181222
