13   
From optimize.out: Frame 2 / 3, Energy=    -286.9243532468
C        1.6122494047    0.3946278292   -0.3200295248
C        1.1658909534   -0.9030541470   -0.4862486301
C       -0.1595476215   -1.4235519391   -0.2676467073
C       -1.2527405999   -0.7281165950    0.1552449236
C       -0.2972360342    1.6092285211    0.4247268073
N        1.0095852391    1.5393166337    0.0782923710
H        2.6676952812    0.5491998630   -0.5548799498
H        1.9121667943   -1.6169476107   -0.8267056977
H       -0.2899010669   -2.4856640353   -0.4650881295
H       -2.1829704076   -1.2816020282    0.2672149033
H       -0.5881459804    2.6202780184    0.7185097546
C       -1.3149252381    0.6752234936    0.4757924417
H       -2.2821207241    1.0510619963    0.8008174376
