13   
From qcopt_rct.out: Frame 3 / 3, Energy=    -286.8549138483
C        1.6764508560    0.4030172359   -0.1930495549
C        1.1279256972   -0.8294509037   -0.2762912259
C       -0.3111861520   -1.0650627677   -0.0780077892
C       -1.1573573628    0.3241905948    0.0596926190
C       -0.3362343017    1.5305391778   -0.1496642450
N        0.9504662972    1.5941329163   -0.1778351384
H        2.7521568091    0.5364232580   -0.2734544019
H        1.7524274039   -1.6892883233   -0.5063386061
H       -0.7536106631   -1.9073286746   -0.6131413927
H       -2.1691029248    0.3824160846   -0.3464860033
H       -0.8823441550    2.4547635607   -0.3541108086
C       -0.9438247283   -0.6178898410    1.1606941645
H       -1.7057667758   -1.1164623184    1.7479923823
13   
From qcopt_prd.out: Frame 2 / 2, Energy=    -286.9243540857
C        1.6122399012    0.3946117159   -0.3200388425
C        1.1656878054   -0.9029043403   -0.4871024535
C       -0.1596444965   -1.4234414962   -0.2679558642
C       -1.2525584176   -0.7282459612    0.1560206471
C       -0.2976105456    1.6095363817    0.4232469982
N        1.0096526555    1.5391945836    0.0786238675
H        2.6682602442    0.5487488711   -0.5525659560
H        1.9119219593   -1.6167207379   -0.8277760291
H       -0.2900743317   -2.4854909963   -0.4657278816
H       -2.1825846434   -1.2819210144    0.2686316671
H       -0.5882882872    2.6203981789    0.7178166301
C       -1.3149130757    0.6752205706    0.4758251278
H       -2.2820887679    1.0510142446    0.8010020892
