13   
From optimize.out: Frame 1 / 3, Energy=    -286.8249802177
C        1.3035349115    0.2523066102    0.3291060060
C        0.5913190029   -1.0055985115   -0.2087984477
C       -0.6517611496   -0.3983700877   -0.9062857724
C       -1.0960336310    0.1940264597    0.4023153426
C       -0.4550144255    1.1112153377   -0.6552227711
N        0.8877986525    1.4248347785   -0.3426448046
H        2.3209426189    0.1918218841    0.6997751194
H        1.0959359131   -1.9394821022   -0.4294483782
H       -1.2322645499   -0.8069703200   -1.7257967944
H       -2.0887632482    0.3397693960    0.8132460567
H       -1.0540937113    1.8412841126   -1.1880377433
C        0.1477433481   -0.4135200186    1.0993477139
H        0.2306562686   -0.7913175388    2.1124444732
13   
From optimize.out: Frame 2 / 3, Energy=    -286.8249843035
C        1.3034507142    0.2523943381    0.3289021770
C        0.5916288912   -1.0050617502   -0.2092493376
C       -0.6521658330   -0.3977842094   -0.9051970667
C       -1.0959655940    0.1946263386    0.4034514892
C       -0.4551076180    1.1110877542   -0.6555010574
N        0.8876436969    1.4247880960   -0.3429140796
H        2.3207783254    0.1924115806    0.6997519828
H        1.0948230062   -1.9399719960   -0.4290753594
H       -1.2305035049   -0.8066767210   -1.7260922776
H       -2.0890259988    0.3400213276    0.8136937589
H       -1.0542354952    1.8406373216   -1.1891370801
C        0.1477918138   -0.4136657065    1.0994543708
H        0.2308875962   -0.7928063737    2.1119124798
