13   
Frame   0 IRC: Energy =  -286.9461863524 ; +0.0000 kcal/mol
C        1.4298808355   -0.5162862668   -0.3197533289
C        0.4658761785   -1.3310214299    0.3755321344
C       -0.8117936186   -0.9840348135    0.7083348647
C       -1.4667160937    0.2701948990    0.4345863168
C       -0.9557545905    1.3814119512   -0.2130057634
N        0.2475122713    1.6539441195   -0.7738801079
H        2.4031032228   -0.9672164975   -0.4959803541
H        0.8017911517   -2.3257568506    0.6597651267
H       -1.4072674929   -1.7254740750    1.2361544740
H       -2.4937680354    0.3611577897    0.7788881065
H       -1.6471128029    2.2209528728   -0.3007546193
C        1.2776924928    0.7748223881   -0.7958691563
H        2.1565564808    1.1873059136   -1.2940176927
13   
Frame   1 IRC: Energy =  -286.9458404932 ; +0.2170 kcal/mol
C        1.4314668158   -0.5176162251   -0.3041236998
C        0.4650080646   -1.3312724348    0.3644511584
C       -0.8112935457   -0.9860886016    0.7140405342
C       -1.4597361913    0.2793928492    0.4465293059
C       -0.9672516430    1.3722243360   -0.2187233339
N        0.2495039849    1.6412223476   -0.8049910632
H        2.4077760956   -0.9608763764   -0.4793692917
H        0.7900985483   -2.3369497073    0.6251650629
H       -1.4072603607   -1.7290709778    1.2368072241
H       -2.4799054529    0.3779101946    0.8104244921
H       -1.6545378749    2.2113533641   -0.3208373257
C        1.2717423960    0.7864127835   -0.7939769119
H        2.1643891632    1.1933584480   -1.2753961512
13   
Frame   2 IRC: Energy =  -286.9454417460 ; +0.4672 kcal/mol
C        1.4484077979   -0.5022285466   -0.2567564713
C        0.4718286103   -1.3219320924    0.3730616659
C       -0.8255203231   -0.9969910458    0.6808894632
C       -1.4625016150    0.2783400394    0.4443068950
C       -0.9641818147    1.3780804015   -0.1996117201
N        0.2347580516    1.6138738944   -0.8468618889
H        2.4360650670   -0.9316938444   -0.3989485760
H        0.7954978156   -2.3282959208    0.6345008692
H       -1.4299552204   -1.7558846239    1.1692977862
H       -2.4738439202    0.3845815232    0.8311304355
H       -1.6256704019    2.2412490414   -0.2539934696
C        1.2599343938    0.7778620561   -0.8237560879
H        2.1351815592    1.1630391181   -1.3532589012
13   
Frame   3 IRC: Energy =  -286.9448506906 ; +0.8381 kcal/mol
C        1.4616881495   -0.4851785066   -0.2151220269
C        0.4782433069   -1.3119439305    0.3819461799
C       -0.8385811985   -1.0066297067    0.6455380113
C       -1.4662242269    0.2763674228    0.4400881198
C       -0.9585347873    1.3843617030   -0.1801676943
N        0.2207687855    1.5893838030   -0.8771238419
H        2.4600818780   -0.8997191574   -0.3225814478
H        0.8051362981   -2.3152102913    0.6522064090
H       -1.4510911657   -1.7802678445    1.0993486236
H       -2.4701195228    0.3864210934    0.8457900251
H       -1.5912396105    2.2702419478   -0.1861593992
C        1.2497314375    0.7683731103   -0.8477724294
H        2.1001406562    1.1238003566   -1.4359905292
13   
Frame   4 IRC: Energy =  -286.9441093899 ; +1.3033 kcal/mol
C        1.4697416119   -0.4676895144   -0.1820404099
C        0.4839321028   -1.3019741296    0.3924858748
C       -0.8494675331   -1.0156042704    0.6094773739
C       -1.4683338819    0.2750474312    0.4365382612
C       -0.9479562994    1.3915858569   -0.1566459430
N        0.2071311738    1.5687278601   -0.9009738118
H        2.4796446990   -0.8622874667   -0.2496683681
H        0.8177400221   -2.2984772265    0.6794360179
H       -1.4711516644   -1.8036994039    1.0246408686
H       -2.4672468211    0.3857765143    0.8549324687
H       -1.5530262140    2.2956850500   -0.1187327699
C        1.2365155469    0.7539154041   -0.8754592390
H        2.0624772573    1.0789938950   -1.5139903234
13   
Frame   5 IRC: Energy =  -286.9431200110 ; +1.9242 kcal/mol
C        1.4744945710   -0.4487949838   -0.1543169482
C        0.4873307469   -1.2914522208    0.4045910845
C       -0.8572986508   -1.0236509503    0.5738713112
C       -1.4712015784    0.2712932637    0.4291057261
C       -0.9367187047    1.3960893026   -0.1360451141
N        0.1944953100    1.5557086559   -0.9196258099
H        2.4940017176   -0.8226217813   -0.1843559189
H        0.8300303617   -2.2776492497    0.7131144181
H       -1.4863029898   -1.8242502454    0.9513265917
H       -2.4651399160    0.3818724402    0.8566722816
H       -1.5089579561    2.3180899371   -0.0470348371
C        1.2239976549    0.7383076703   -0.8980226285
H        2.0212694335    1.0270581616   -1.5892801564
13   
Frame   6 IRC: Energy =  -286.9418364694 ; +2.7296 kcal/mol
C        1.4818101032   -0.4355148086   -0.1262574457
C        0.4962678849   -1.2794320863    0.4116602943
C       -0.8663394015   -1.0280669441    0.5367990856
C       -1.4742361383    0.2682085162    0.4216667864
C       -0.9237968286    1.4045192269   -0.1063582417
N        0.1870031572    1.5392582878   -0.9281675189
H        2.5089818881   -0.7881130660   -0.1266446168
H        0.8414426087   -2.2551212909    0.7511727152
H       -1.4968266597   -1.8396919842    0.8879601042
H       -2.4739428815    0.3704952763    0.8419001478
H       -1.4634866580    2.3412243329    0.0245968971
C        1.2083722448    0.7291486162   -0.9233240870
H        1.9747506806    0.9730859238   -1.6650041204
13   
Frame   7 IRC: Energy =  -286.9402169616 ; +3.7459 kcal/mol
C        1.4844643375   -0.4267455545   -0.1084322768
C        0.5067317930   -1.2662842624    0.4190462324
C       -0.8728842583   -1.0283476976    0.5025761436
C       -1.4766106747    0.2630019134    0.4102793497
C       -0.9060017912    1.4142066569   -0.0707938122
N        0.1817457436    1.5256964001   -0.9271229179
H        2.5195637676   -0.7531838215   -0.0777907447
H        0.8529238059   -2.2260370553    0.8008022671
H       -1.5040987698   -1.8517276370    0.8238062876
H       -2.4843309304    0.3558222807    0.8135693618
H       -1.4158753780    2.3596529662    0.0984139392
C        1.1927595723    0.7158092752   -0.9468412530
H        1.9216127825    0.9181365357   -1.7375125768
13   
Frame   8 IRC: Energy =  -286.9382271443 ; +4.9945 kcal/mol
C        1.4855159380   -0.4217922538   -0.1000909470
C        0.5155874341   -1.2551261755    0.4273514584
C       -0.8775827426   -1.0294209389    0.4707343289
C       -1.4769413080    0.2573426671    0.4001470806
C       -0.8848053740    1.4228022457   -0.0337496745
N        0.1793882948    1.5187136090   -0.9202952066
H        2.5286584202   -0.7183486480   -0.0356355406
H        0.8638464824   -2.1938873788    0.8585188397
H       -1.5107679742   -1.8619103942    0.7621373020
H       -2.4965217363    0.3407892552    0.7754071289
H       -1.3683838566    2.3741392275    0.1723425464
C        1.1760537198    0.7010146303   -0.9716189395
H        1.8659527023    0.8656841545   -1.8052483766
13   
Frame   9 IRC: Energy =  -286.9358395638 ; +6.4927 kcal/mol
C        1.4828987464   -0.4207742075   -0.1010883559
C        0.5222375122   -1.2483019862    0.4334348859
C       -0.8821065620   -1.0324998624    0.4426356533
C       -1.4732933324    0.2502109648    0.3901012770
C       -0.8584952283    1.4289531338    0.0025726993
N        0.1803102694    1.5180539446   -0.9092192485
H        2.5337708632   -0.6763104697    0.0077595173
H        0.8735568868   -2.1617737692    0.9165392247
H       -1.5183123943   -1.8695903862    0.7100846870
H       -2.5071693169    0.3276975143    0.7281765816
H       -1.3203642555    2.3825024822    0.2465017426
C        1.1581793913    0.6847870973   -0.9991428841
H        1.8087874203    0.8170455442   -1.8683557801
13   
Frame  10 IRC: Energy =  -286.9329228190 ; +8.3230 kcal/mol
C        1.4727893148   -0.4257670307   -0.1109223258
C        0.5273657406   -1.2516925783    0.4301755912
C       -0.8887545870   -1.0399026539    0.4166294943
C       -1.4637648010    0.2387743908    0.3762107413
C       -0.8261958577    1.4319168476    0.0352980244
N        0.1912666483    1.5281030083   -0.8932976553
H        2.5281769958   -0.6159980452    0.0662135764
H        0.8804707703   -2.1360121818    0.9632968459
H       -1.5304471917   -1.8740997630    0.6853549688
H       -2.5088637402    0.3196581303    0.6732487672
H       -1.2734775639    2.3798297401    0.3189715623
C        1.1395348027    0.6687500382   -1.0306430642
H        1.7518994689    0.7764400975   -1.9305365265
13   
Frame  11 IRC: Energy =  -286.9288564572 ; +10.8747 kcal/mol
C        1.4564830043   -0.4398418312   -0.1335391240
C        0.5266973658   -1.2683193469    0.4133269741
C       -0.8970009673   -1.0538530155    0.3963578841
C       -1.4503158098    0.2243543438    0.3580276944
C       -0.7915387964    1.4300436790    0.0573029700
N        0.2209203610    1.5500449168   -0.8622186076
H        2.5040963700   -0.5353316949    0.1398103164
H        0.8830296310   -2.1229909018    0.9908638250
H       -1.5416096244   -1.8755520048    0.6992831867
H       -2.5028919531    0.3172109937    0.6210790228
H       -1.2352356780    2.3683345707    0.3726152901
C        1.1242479108    0.6534555942   -1.0648088226
H        1.7031181862    0.7524446969   -1.9881006094
13   
Frame  12 IRC: Energy =  -286.9225397108 ; +14.8385 kcal/mol
C        1.4426250608   -0.4587031500   -0.1626748860
C        0.5235706116   -1.2837401299    0.3953730452
C       -0.9048687968   -1.0624907077    0.3899405057
C       -1.4503181286    0.2100330995    0.3367236247
C       -0.7676029800    1.4233168321    0.0570704856
N        0.2741890980    1.5715644063   -0.7981078880
H        2.4658698233   -0.4429780090    0.2076387075
H        0.8851476191   -2.1199146547    0.9948179646
H       -1.5403720756   -1.8757009490    0.7325779321
H       -2.5059116939    0.3171234242    0.5884447093
H       -1.2038129764    2.3552001204    0.3971035764
C        1.1076654063    0.6255326815   -1.1047837884
H        1.6738190323    0.7407570362   -2.0341239886
13   
Frame  13 IRC: Energy =  -286.9127457660 ; +20.9843 kcal/mol
C        1.4365090170   -0.4549595677   -0.1732681949
C        0.5216748070   -1.2801891273    0.3864453907
C       -0.9118200008   -1.0584002002    0.3965027535
C       -1.4687561471    0.1938923239    0.3120262147
C       -0.7523111785    1.4116924276    0.0373587403
N        0.3310210296    1.5715192381   -0.7039452440
H        2.4350722358   -0.3591821379    0.2598034396
H        0.8874415152   -2.1248231791    0.9658919286
H       -1.5318606588   -1.8739532033    0.7635993245
H       -2.5174032839    0.3236018896    0.5858436995
H       -1.1747292831    2.3424859626    0.3957856484
C        1.0772883547    0.5696892458   -1.1611760878
H        1.6678735929    0.7386263279   -2.0648676133
13   
Frame  14 IRC: Energy =  -286.9001376919 ; +28.8960 kcal/mol
C        1.4307198164   -0.4294304309   -0.1696305799
C        0.5077543090   -1.2671715086    0.3861354606
C       -0.9153965724   -1.0563304011    0.4080452253
C       -1.4890648524    0.1896730623    0.2932951433
C       -0.7420681707    1.3889111752    0.0301504453
N        0.3884537008    1.5332029254   -0.6114347039
H        2.4052072722   -0.2774559026    0.3000244643
H        0.8914781147   -2.1320169517    0.9173298328
H       -1.5260609067   -1.8753615034    0.7867805397
H       -2.5271589927    0.3349536889    0.5960136725
H       -1.1489475163    2.3333336432    0.3716097815
C        1.0553559370    0.5155804215   -1.2156947728
H        1.6697278610    0.7421117818   -2.0926245086
13   
Frame  15 IRC: Energy =  -286.8844310771 ; +38.7521 kcal/mol
C        1.4116977079   -0.3800438025   -0.1530343060
C        0.4867893687   -1.2541965653    0.3898208661
C       -0.9143347952   -1.0588186357    0.4221899405
C       -1.5005594579    0.1962839681    0.2885352777
C       -0.7404721119    1.3626549615    0.0327982833
N        0.4491976907    1.4641160596   -0.5220438694
H        2.3765991936   -0.2103962757    0.3250977776
H        0.8963346595   -2.1379702294    0.8690374551
H       -1.5243238773   -1.8802759316    0.7985014201
H       -2.5330806743    0.3446111375    0.6043712754
H       -1.1318066090    2.3288277762    0.3354231598
C        1.0454574992    0.4760456524   -1.2682927559
H        1.6785014059    0.7491618849   -2.1224045244
13   
Frame  16 IRC: Energy =  -286.8690506741 ; +48.4034 kcal/mol
C        1.3802218504   -0.3054638861   -0.1310199090
C        0.4655722719   -1.2493085484    0.3929916626
C       -0.9095841422   -1.0673253158    0.4370085781
C       -1.5050420102    0.2089906548    0.2952637897
C       -0.7469341300    1.3423694895    0.0386114464
N        0.5142358118    1.3774681915   -0.4427721737
H        2.3522718862   -0.1630352205    0.3393349182
H        0.9004589326   -2.1444661356    0.8301358464
H       -1.5250780135   -1.8865622113    0.8028242711
H       -2.5367786775    0.3508830421    0.6079552026
H       -1.1229880488    2.3281449486    0.2988376708
C        1.0447322169    0.4522384133   -1.3204472336
H        1.6889120526    0.7560665777   -2.1487240698
13   
Frame  17 IRC: Energy =  -286.8625020267 ; +52.5128 kcal/mol
C        1.3429834622   -0.2232237638   -0.1050624193
C        0.4481587220   -1.2490260643    0.3933336476
C       -0.9038603631   -1.0768072888    0.4537359982
C       -1.5052418363    0.2230251366    0.3101008545
C       -0.7532412025    1.3267973297    0.0455195631
N        0.5747508137    1.2838819716   -0.3749051048
H        2.3277126121   -0.1241196666    0.3525410332
H        0.9040309400   -2.1541882116    0.7878916175
H       -1.5271384645   -1.8942035618    0.8057903699
H       -2.5399088774    0.3568616155    0.6131009946
H       -1.1173642189    2.3289778239    0.2562097721
C        1.0487740992    0.4386404849   -1.3653721047
H        1.7003443136    0.7633841948   -2.1728842220
13   
Frame  18 IRC: Energy =  -286.8624220000 ; +52.5630 kcal/mol (Transition State)
C        1.3198689435   -0.1740297518   -0.0811625445
C        0.4388580022   -1.2539058406    0.3869777441
C       -0.9012422113   -1.0817952339    0.4847310865
C       -1.5030179527    0.2330975964    0.3490652772
C       -0.7545936815    1.3168080579    0.0482609488
N        0.6024515089    1.2226284054   -0.3386142732
H        2.3010476621   -0.0848576482    0.3877024036
H        0.9066614819   -2.1820566650    0.7060029028
H       -1.5292735747   -1.9044684086    0.8148287037
H       -2.5407849220    0.3691391148    0.6389764610
H       -1.1166397145    2.3324274612    0.1773736148
C        1.0628469712    0.4327291838   -1.3870354486
H        1.7138174868    0.7742837287   -2.1871068762
