13   
From optimize.out: Frame 2 / 3, Energy=    -286.8468603422
C        1.4201258592   -0.1102457039    0.0437406180
C        0.5131430826   -1.2404086446    0.2844096631
C       -0.8315315215   -1.0779425025    0.2988434207
C       -1.4326655262    0.2447544380    0.2682274338
C       -0.6677288371    1.3505297139    0.1618312354
N        0.7278310960    1.2823628800   -0.0724007467
H        2.3692255611   -0.0891025893    0.5789650420
H        0.9590764770   -2.2129026878    0.4792617381
H       -1.4797767166   -1.9369299244    0.4497674187
H       -2.4981846856    0.3475476200    0.4535917572
H       -1.0519440033    2.3545724731    0.3176918551
C        1.2790549638    0.6786783182   -1.1928777802
H        0.6933742504    0.4090866093   -2.0710516553
