13   
From optimize.out: Frame 1 / 24, Energy=    -286.7129297455
C        1.3233178873    0.1806141673   -1.4240208838
C        0.5665793148   -1.0427674059   -1.1870631495
C       -0.6102910794   -0.6362643999   -2.1186573986
C       -1.0424453039    0.1720568975   -0.5057290152
C       -0.6221362574    0.8925167631   -2.0767962277
N        0.7205195312    1.3552423938   -1.7019215392
H        2.4227245565    0.2535797123   -1.5043409799
H        1.1460349668   -1.9102322802   -1.6005362015
H       -1.4666981316   -1.4079627156   -2.2477103874
H       -1.9695196139    0.6829921437   -0.2787122648
H       -1.1377616556    1.5882396513   -2.7735770705
C       -0.3769403736   -1.0449930989    0.0351522828
H       -0.2317932879   -1.0419464136    1.0596189249
13   
From optimize.out: Frame 2 / 24, Energy=    -286.7454502266
C        1.3657834248    0.1854580836   -1.4317151335
C        0.5684042439   -1.0354655530   -1.2100617662
C       -0.6258188470   -0.6295675057   -2.1253307403
C       -1.0721663076    0.1656655381   -0.5145588051
C       -0.6241275285    0.8704720085   -2.0560648351
N        0.7343188440    1.3205850034   -1.7191944842
H        2.4626565239    0.2454776744   -1.4772824317
H        1.1349815469   -1.9124216433   -1.5929124317
H       -1.4681672653   -1.3718854735   -2.2616613975
H       -2.0083824314    0.6586663899   -0.2745947492
H       -1.1563186488    1.5597924563   -2.7292968461
C       -0.3779358784   -1.0050222761    0.0118784117
H       -0.2116371233   -1.0106792878    1.0565012986
13   
From optimize.out: Frame 3 / 24, Energy=    -286.7693593534
C        1.3860449016    0.1917406047   -1.4407170399
C        0.5665556502   -1.0339939843   -1.2325053533
C       -0.6312071762   -0.6290211212   -2.1338518497
C       -1.0908019406    0.1669051736   -0.5304044473
C       -0.6201267472    0.8463014752   -2.0285527447
N        0.7433773000    1.2920943087   -1.7337804278
H        2.4788831149    0.2415514995   -1.4460232092
H        1.1181705464   -1.9246877454   -1.5802209518
H       -1.4604286262   -1.3459794505   -2.2811678645
H       -2.0320827262    0.6446475856   -0.2753421962
H       -1.1740965175    1.5332674271   -2.6731875042
C       -0.3766288876   -0.9630185036   -0.0120344508
H       -0.1860683384   -0.9787318543    1.0434941289
13   
From optimize.out: Frame 4 / 24, Energy=    -286.7865105026
C        1.4033194316    0.1929024184   -1.4504697116
C        0.5659386601   -1.0354411399   -1.2509111551
C       -0.6322719012   -0.6314863713   -2.1474108996
C       -1.1087418771    0.1740808321   -0.5497596531
C       -0.6200884529    0.8313000005   -1.9997451308
N        0.7512978223    1.2713449608   -1.7476422306
H        2.4937169485    0.2321949930   -1.4157152424
H        1.1044702325   -1.9413103735   -1.5615847700
H       -1.4550818110   -1.3334896154   -2.3106939552
H       -2.0554998743    0.6342945610   -0.2789496195
H       -1.1989007244    1.5181645000   -2.6154483570
C       -0.3691939554   -0.9223323123   -0.0286920121
H       -0.1573739453   -0.9491470385    1.0327288266
13   
From optimize.out: Frame 5 / 24, Energy=    -286.7997153637
C        1.4158274231    0.1929357035   -1.4610971140
C        0.5643460834   -1.0378700560   -1.2663639327
C       -0.6303765947   -0.6374744055   -2.1647070130
C       -1.1218539950    0.1851241377   -0.5704558356
C       -0.6204357108    0.8193263626   -1.9701958612
N        0.7582365410    1.2570011546   -1.7614146994
H        2.5028473999    0.2243205581   -1.3881533054
H        1.0896862886   -1.9597458872   -1.5367550804
H       -1.4496733501   -1.3278442358   -2.3459463616
H       -2.0728822874    0.6268331923   -0.2807181160
H       -1.2236435351    1.5060096863   -2.5574142945
C       -0.3597382818   -0.8831029005   -0.0428578951
H       -0.1307494278   -0.9244378950    1.0217855987
13   
From optimize.out: Frame 6 / 24, Energy=    -286.8095575282
C        1.4251312398    0.1913397413   -1.4734400774
C        0.5618472122   -1.0401118710   -1.2782663083
C       -0.6249697363   -0.6438957803   -2.1861176827
C       -1.1321137426    0.1979083578   -0.5872942450
C       -0.6222763635    0.8107601635   -1.9429188931
N        0.7642946453    1.2466310551   -1.7779055591
H        2.5084205855    0.2172422358   -1.3650508590
H        1.0740152799   -1.9783703387   -1.5046789643
H       -1.4420001859   -1.3250222014   -2.3887251345
H       -2.0861375294    0.6188513727   -0.2741908747
H       -1.2472390116    1.4969888777   -2.5055270473
C       -0.3487790972   -0.8447133056   -0.0525918270
H       -0.1086027428   -0.9065328921    1.0124135619
13   
From optimize.out: Frame 7 / 24, Energy=    -286.8165979331
C        1.4311490830    0.1900720068   -1.4873678571
C        0.5581335094   -1.0411213802   -1.2873672087
C       -0.6156217156   -0.6507538546   -2.2115336035
C       -1.1392009154    0.2124842756   -0.5955694661
C       -0.6248856101    0.8035694916   -1.9217104045
N        0.7688074668    1.2392577518   -1.7984212611
H        2.5101889290    0.2137187713   -1.3461933094
H        1.0566958998   -1.9953443816   -1.4649567632
H       -1.4307815032   -1.3236666037   -2.4375104727
H       -2.0926152113    0.6129301936   -0.2528402754
H       -1.2676578493    1.4883885384   -2.4654471684
C       -0.3383353554   -0.8067400135   -0.0590520794
H       -0.0942861746   -0.9017193807    1.0036759592
13   
From optimize.out: Frame 8 / 24, Energy=    -286.8220266366
C        1.4350812619    0.1905579539   -1.5009406435
C        0.5543490974   -1.0409515531   -1.2950174580
C       -0.6010264422   -0.6590008153   -2.2409041274
C       -1.1422968517    0.2305045483   -0.5932948842
C       -0.6293042306    0.7940512443   -1.9075114937
N        0.7694519169    1.2327384943   -1.8208704170
H        2.5095987733    0.2153544886   -1.3313571553
H        1.0398274341   -2.0084418160   -1.4220613446
H       -1.4141315966   -1.3247303062   -2.4873593258
H       -2.0880157649    0.6184833122   -0.2153923312
H       -1.2870089346    1.4759963755   -2.4371666182
C       -0.3321002506   -0.7705286569   -0.0652991978
H       -0.0928338588   -0.9129578546    0.9928810865
13   
From optimize.out: Frame 9 / 24, Energy=    -286.8272710812
C        1.4378010375    0.1918072430   -1.5122039398
C        0.5499664586   -1.0405374050   -1.3029682702
C       -0.5817903695   -0.6689699656   -2.2751609857
C       -1.1438319324    0.2504427062   -0.5835831182
C       -0.6350991178    0.7808024557   -1.8964434472
N        0.7673882694    1.2256718195   -1.8416029066
H        2.5075579428    0.2193398270   -1.3174302180
H        1.0220645837   -2.0184235484   -1.3813875688
H       -1.3930122390   -1.3288258012   -2.5381428791
H       -2.0759640273    0.6330012593   -0.1676479740
H       -1.3061134623    1.4597105714   -2.4138029167
C       -0.3300545801   -0.7356064951   -0.0724328648
H       -0.0973220102   -0.9273372519    0.9785131788
13   
From optimize.out: Frame 10 / 24, Energy=    -286.8323781245
C        1.4394096496    0.1925257345   -1.5213856188
C        0.5444221601   -1.0400916191   -1.3106880219
C       -0.5599703280   -0.6793742159   -2.3122513437
C       -1.1462979064    0.2713130818   -0.5679964492
C       -0.6415732663    0.7658631218   -1.8880465679
N        0.7645818493    1.2185067244   -1.8611155778
H        2.5041298810    0.2236549822   -1.3025746294
H        1.0017100649   -2.0267311917   -1.3422390947
H       -1.3693550341   -1.3344985253   -2.5920494898
H       -2.0616704723    0.6495319087   -0.1130376370
H       -1.3241433206    1.4420378925   -2.3954080255
C       -0.3293172110   -0.7006436211   -0.0786998018
H       -0.1003355130   -0.9410188579    0.9611983470
13   
From optimize.out: Frame 11 / 24, Energy=    -286.8367620841
C        1.4396176036    0.1935995789   -1.5290084946
C        0.5396626307   -1.0395391721   -1.3155283702
C       -0.5395927617   -0.6885586314   -2.3444687642
C       -1.1492086250    0.2947119831   -0.5475432745
C       -0.6492218218    0.7517018261   -1.8861592168
N        0.7608411460    1.2131405273   -1.8806188931
H        2.4996117724    0.2305666958   -1.2895608887
H        0.9828549794   -2.0328068161   -1.3025393276
H       -1.3463055369   -1.3397394443   -2.6443921473
H       -2.0450080751    0.6698624595   -0.0547797815
H       -1.3398652195    1.4244823185   -2.3897296747
C       -0.3267260436   -0.6692448991   -0.0820662309
H       -0.1050694951   -0.9671010113    0.9421011538
13   
From optimize.out: Frame 12 / 24, Energy=    -286.8403301369
C        1.4394607279    0.1961417299   -1.5375283575
C        0.5388348140   -1.0389072021   -1.3170276594
C       -0.5237691114   -0.6961638042   -2.3656919831
C       -1.1473303674    0.3179596109   -0.5267578235
C       -0.6582215111    0.7383510502   -1.8883392334
N        0.7553221441    1.2111748031   -1.8956487039
H        2.4968538381    0.2408475100   -1.2882231112
H        0.9725288614   -2.0352123548   -1.2668253229
H       -1.3249280243   -1.3441911138   -2.6894581034
H       -2.0205221114    0.6941451771    0.0013267440
H       -1.3533025240    1.4068551601   -2.3935696645
C       -0.3214524905   -0.6473872730   -0.0836713773
H       -0.1318836920   -1.0025378784    0.9271206858
13   
From optimize.out: Frame 13 / 24, Energy=    -286.8435245212
C        1.4373456161    0.1994884807   -1.5448640189
C        0.5405239174   -1.0378738127   -1.3135405871
C       -0.5122614032   -0.7020865432   -2.3751090995
C       -1.1421545861    0.3372598982   -0.5048536314
C       -0.6683099465    0.7286038285   -1.8934592473
N        0.7493698547    1.2139700049   -1.9039016310
H        2.4962768376    0.2510912409   -1.3025778304
H        0.9719764074   -2.0342959693   -1.2399882706
H       -1.3039270206   -1.3502623122   -2.7266591434
H       -1.9915517065    0.7182296251    0.0544503326
H       -1.3616258513    1.3924653457   -2.4091487906
C       -0.3152009603   -0.6347753017   -0.0817270830
H       -0.1788706054   -1.0407390701    0.9170850901
13   
From optimize.out: Frame 14 / 24, Energy=    -286.8462568240
C        1.4322418290    0.2060737082   -1.5470499011
C        0.5431945449   -1.0357490462   -1.3044867763
C       -0.5029728302   -0.7091851856   -2.3733938232
C       -1.1316226481    0.3581412406   -0.4894183702
C       -0.6792995014    0.7196428138   -1.8962346865
N        0.7408901439    1.2182522058   -1.9061725603
H        2.4956679029    0.2625029618   -1.3259719660
H        0.9823450688   -2.0280719104   -1.2219047300
H       -1.2830673961   -1.3611290655   -2.7429085396
H       -1.9568466967    0.7567681970    0.0915466242
H       -1.3683713865    1.3780294364   -2.4237664538
C       -0.3172684141   -0.6291659773   -0.0815892989
H       -0.2333000631   -1.0950339637    0.8970565713
13   
From optimize.out: Frame 15 / 24, Energy=    -286.8482918925
C        1.4296230523    0.2078548084   -1.5500512478
C        0.5487898722   -1.0317410995   -1.2950706378
C       -0.4935030055   -0.7126948809   -2.3751444034
C       -1.1221860663    0.3589498627   -0.4644526537
C       -0.6950137025    0.7141752380   -1.9040287581
N        0.7352769909    1.2251006593   -1.9002816917
H        2.5015667555    0.2656667253   -1.3690665103
H        1.0073756005   -2.0182850464   -1.2289819774
H       -1.2588036979   -1.3753049347   -2.7700636283
H       -1.9160590317    0.7769642792    0.1435545900
H       -1.3711460793    1.3743612188   -2.4479138868
C       -0.3146685858   -0.6441180645   -0.0731683316
H       -0.3296615490   -1.0998533508    0.9103752264
13   
From optimize.out: Frame 16 / 24, Energy=    -286.8496310785
C        1.4116436701    0.2146506611   -1.5387843815
C        0.5400574603   -1.0286126988   -1.2721321297
C       -0.4866906785   -0.7202921193   -2.3598201489
C       -1.1186835933    0.3865269584   -0.4542889164
C       -0.7050205942    0.7162848013   -1.9107010507
N        0.7257833485    1.2341784663   -1.8928968310
H        2.4888500870    0.2686102442   -1.3889727210
H        1.0229120754   -2.0044119334   -1.2119255607
H       -1.2436860601   -1.3952382236   -2.7523246307
H       -1.8958990797    0.8405846306    0.1492143741
H       -1.3644838027    1.3703871536   -2.4803928764
C       -0.3363144674   -0.6382306137   -0.0682030561
H       -0.3168778123   -1.2033619117    0.8569340186
13   
From optimize.out: Frame 17 / 24, Energy=    -286.8503636111
C        1.4142830790    0.2261403360   -1.5310535704
C        0.5482121353   -1.0266067464   -1.2775523317
C       -0.4794262633   -0.7270934113   -2.3680934993
C       -1.0988062205    0.3853182363   -0.4650108194
C       -0.7100898294    0.6996466446   -1.8979529158
N        0.7184255682    1.2301260785   -1.8933794432
H        2.4925771795    0.2793670613   -1.3948446872
H        1.0473153250   -1.9927593660   -1.2343605454
H       -1.2381472956   -1.4056344708   -2.7340017103
H       -1.8490045306    0.8768177682    0.1453033111
H       -1.3808974187    1.3553083067   -2.4467317599
C       -0.3551303625   -0.6633056007   -0.0872522239
H       -0.3877208132   -1.1962494216    0.8606362850
13   
From optimize.out: Frame 18 / 24, Energy=    -286.8511321872
C        1.4124860238    0.2202052547   -1.5299627455
C        0.5450230102   -1.0281813862   -1.2776770608
C       -0.4766521740   -0.7211255124   -2.3743971580
C       -1.1154064607    0.3676343952   -0.4647857057
C       -0.7097418495    0.7083015388   -1.9019911201
N        0.7208636316    1.2341193821   -1.8794448209
H        2.4922978287    0.2666072618   -1.3988776992
H        1.0496661783   -1.9937296346   -1.2478809727
H       -1.2425273005   -1.4049492477   -2.7278941614
H       -1.8687588672    0.8677798294    0.1344281424
H       -1.3711282183    1.3701248808   -2.4579940900
C       -0.3554503431   -0.6722705198   -0.0800388611
H       -0.3590809059   -1.1734408275    0.8822223427
13   
From optimize.out: Frame 19 / 24, Energy=    -286.8514684812
C        1.4088509491    0.2232781783   -1.5191920893
C        0.5426172326   -1.0296969649   -1.2814745993
C       -0.4732693000   -0.7198074446   -2.3829945956
C       -1.1199064286    0.3593203835   -0.4674896490
C       -0.7086178836    0.7093004586   -1.9046708923
N        0.7202377639    1.2386533001   -1.8721777323
H        2.4888366141    0.2668750810   -1.3861831242
H        1.0518626116   -1.9938361712   -1.2626234595
H       -1.2547374550   -1.4078752507   -2.7014990866
H       -1.8660591929    0.8807606271    0.1223154682
H       -1.3674429710    1.3705252348   -2.4659921029
C       -0.3610395415   -0.6822414583   -0.0837259239
H       -0.3397418453   -1.1741805588    0.8814138764
13   
From optimize.out: Frame 20 / 24, Energy=    -286.8515817990
C        1.4101621681    0.2248424937   -1.5206019833
C        0.5449748518   -1.0304159111   -1.2834005833
C       -0.4663404996   -0.7182994618   -2.3891705211
C       -1.1241769762    0.3545765451   -0.4711606395
C       -0.7074018669    0.7080837649   -1.9053447253
N        0.7192845035    1.2409097933   -1.8653177950
H        2.4896612439    0.2696842356   -1.3845757151
H        1.0551143231   -1.9940277842   -1.2661890439
H       -1.2612112120   -1.4072356003   -2.6712507027
H       -1.8651885235    0.8920010123    0.1105474042
H       -1.3671818698    1.3714232366   -2.4631842465
C       -0.3684880381   -0.6886850063   -0.0894982922
H       -0.3376175510   -1.1817819028    0.8748529332
13   
From optimize.out: Frame 21 / 24, Energy=    -286.8516121062
C        1.4105443443    0.2279971885   -1.5156627181
C        0.5461740951   -1.0299450151   -1.2865472587
C       -0.4680990994   -0.7188688853   -2.3909286375
C       -1.1217750681    0.3553223256   -0.4717043304
C       -0.7060968808    0.7066826214   -1.9082367376
N        0.7194114473    1.2405559679   -1.8691198193
H        2.4894204809    0.2753566076   -1.3762760278
H        1.0553504578   -1.9937354977   -1.2667214127
H       -1.2696240234   -1.4057443479   -2.6595956496
H       -1.8602246936    0.8953884090    0.1106591195
H       -1.3669856643    1.3679589477   -2.4669989131
C       -0.3673668634   -0.6903657232   -0.0924910785
H       -0.3391379792   -1.1895271836    0.8693295533
13   
From optimize.out: Frame 22 / 24, Energy=    -286.8516248353
C        1.4121475644    0.2280146808   -1.5176154926
C        0.5477802857   -1.0291466183   -1.2869495732
C       -0.4684003986   -0.7188747124   -2.3901449222
C       -1.1216969481    0.3553300898   -0.4715992047
C       -0.7050808664    0.7064511800   -1.9085718601
N        0.7197148060    1.2405921402   -1.8683776552
H        2.4909020408    0.2763857582   -1.3785790192
H        1.0550481862   -1.9937528932   -1.2644356784
H       -1.2713602071   -1.4045390998   -2.6563359305
H       -1.8621047686    0.8924028724    0.1109492454
H       -1.3659247817    1.3677590959   -2.4670330030
C       -0.3662550711   -0.6882915910   -0.0930299238
H       -0.3431792882   -1.1912554877    0.8674291071
13   
From optimize.out: Frame 23 / 24, Energy=    -286.8516282111
C        1.4135837193    0.2277800219   -1.5193829377
C        0.5494979652   -1.0283663765   -1.2869092708
C       -0.4683736900   -0.7181397071   -2.3886800875
C       -1.1220528237    0.3551684160   -0.4715985924
C       -0.7041563225    0.7073351506   -1.9086063044
N        0.7204165219    1.2400303984   -1.8701235519
H        2.4923247719    0.2766601284   -1.3810000324
H        1.0560952617   -1.9932442961   -1.2634552464
H       -1.2725948326   -1.4031228232   -2.6511374815
H       -1.8655102123    0.8896520168    0.1094632148
H       -1.3649748567    1.3689706490   -2.4665111025
C       -0.3654237114   -0.6878935461   -0.0928685206
H       -0.3472412376   -1.1937546172    0.8665160031
