13   
From optimize.out: Frame 1 / 37, Energy=    -286.5877433464
C        1.6778233228    0.3205666990   -2.3811638376
C        1.3187461188   -1.1065389738   -2.3511423657
C       -0.1545992437   -1.2852344601   -2.4260283724
C       -1.3697320456    0.4468150077   -0.9501780646
C       -0.8260331844    1.1192927739   -2.1501840117
N        0.8515455422    1.3461072439   -2.7886875605
H        2.7926228039    0.6434975734   -2.3872309280
H        1.9745733950   -1.8542104706   -1.8440884672
H       -0.2907687003   -1.4360619057   -3.4878029308
H       -1.0360176072    0.8338351958    0.0201174472
H       -1.7737316242    1.5219500201   -2.6407769347
C       -1.6420507423   -0.9457328100   -1.1156467098
H       -1.9388479093   -1.7508673019   -0.4423459156
13   
From optimize.out: Frame 2 / 37, Energy=    -286.6430874522
C        1.6361592285    0.3314509732   -2.3513918222
C        1.2676505603   -1.0690933372   -2.3308043886
C       -0.1931386202   -1.2768105519   -2.4300678097
C       -1.3137334759    0.4117868763   -0.9707233182
C       -0.7796091174    1.0928670868   -2.1730169834
N        0.8262931460    1.3508620093   -2.7543618085
H        2.7349442979    0.6385300240   -2.3425601726
H        1.9222192789   -1.8107541878   -1.8320498072
H       -0.3879726776   -1.4247727997   -3.4883503720
H       -1.0141373356    0.8173669235    0.0032592341
H       -1.6847360227    1.4984699078   -2.7062104280
C       -1.5693837810   -0.9557818421   -1.1266322388
H       -1.8610253556   -1.7507024905   -0.4422487362
13   
From optimize.out: Frame 3 / 37, Energy=    -286.6952452699
C        1.5908949293    0.3369021930   -2.3189974011
C        1.2210714145   -1.0373663068   -2.3132160767
C       -0.2293317418   -1.2649203504   -2.4356827631
C       -1.2596644366    0.3839850278   -0.9896061340
C       -0.7339520964    1.0679753999   -2.1973458347
N        0.7812069339    1.3447801565   -2.7227498947
H        2.6753897466    0.6357569716   -2.2916594724
H        1.8716161428   -1.7766521023   -1.8200600169
H       -0.4707608862   -1.4127693957   -3.4869263436
H       -0.9833876046    0.8067395709   -0.0158359343
H       -1.6034876319    1.4763012748   -2.7602204336
C       -1.4952503659   -0.9607807091   -1.1438784676
H       -1.7808142780   -1.7465331387   -0.4489798787
13   
From optimize.out: Frame 4 / 37, Energy=    -286.7425620681
C        1.5469322090    0.3397251717   -2.2874888415
C        1.1795231432   -1.0127126415   -2.2958674876
C       -0.2626529148   -1.2579961509   -2.4385588833
C       -1.2069362830    0.3625531671   -1.0085462671
C       -0.6894074632    1.0522328402   -2.2219191656
N        0.7258170124    1.3362355876   -2.6908768874
H        2.6179716973    0.6365432246   -2.2425407581
H        1.8284108000   -1.7506356124   -1.8103912459
H       -0.5464610503   -1.4061434218   -3.4816208689
H       -0.9532008263    0.8002076975   -0.0352404180
H       -1.5286282989    1.4648317895   -2.8079278935
C       -1.4239424774   -0.9672434816   -1.1647826794
H       -1.7038954224   -1.7441795783   -0.4593972551
13   
From optimize.out: Frame 5 / 37, Energy=    -286.7816333387
C        1.5062930507    0.3390564370   -2.2595665178
C        1.1442352848   -0.9964825664   -2.2793383784
C       -0.2911719444   -1.2647251396   -2.4385390899
C       -1.1590607689    0.3476577190   -1.0299728877
C       -0.6505105334    1.0544920959   -2.2433805438
N        0.6648827945    1.3272466878   -2.6580296628
H        2.5645172487    0.6373786294   -2.1973461901
H        1.7965281959   -1.7307481769   -1.8029686135
H       -0.6152311041   -1.4183487210   -3.4712234765
H       -0.9318337299    0.7945504464   -0.0547921477
H       -1.4639882142    1.4781913659   -2.8444465398
C       -1.3534530694   -0.9747398958   -1.1923944202
H       -1.6276770847   -1.7401102897   -0.4731601835
13   
From optimize.out: Frame 6 / 37, Energy=    -286.8072292042
C        1.4790967189    0.3332826866   -2.2427728314
C        1.1189703096   -0.9891293999   -2.2650937407
C       -0.3116074744   -1.2943519964   -2.4323237767
C       -1.1275084691    0.3393453887   -1.0541429747
C       -0.6278804507    1.0848829215   -2.2539643120
N        0.6177470650    1.3249028149   -2.6298849184
H        2.5280258946    0.6292915370   -2.1653921597
H        1.7832377411   -1.7172125260   -1.8029348976
H       -0.6727069349   -1.4652356656   -3.4512055939
H       -0.9460174263    0.7893949645   -0.0718085870
H       -1.4206861316    1.5332668419   -2.8585737780
C       -1.2831958623   -0.9835558340   -1.2279439001
H       -1.5539448543   -1.7314631415   -0.4891171811
13   
From optimize.out: Frame 7 / 37, Energy=    -286.8220107331
C        1.4763167065    0.3228091814   -2.2413054890
C        1.1106505912   -0.9897838124   -2.2597144761
C       -0.3181190315   -1.3276309706   -2.4211610104
C       -1.1237869596    0.3372128011   -1.0713095253
C       -0.6269009950    1.1227429151   -2.2502962036
N        0.6048807885    1.3273629743   -2.6132795249
H        2.5219627400    0.6111725333   -2.1541238231
H        1.7922710977   -1.7190101090   -1.8276816232
H       -0.7079684729   -1.5231272786   -3.4249477164
H       -1.0219115632    0.7959560616   -0.0825320052
H       -1.4026747642    1.6054643035   -2.8496035294
C       -1.2221426638   -0.9903482289   -1.2528891373
H       -1.4990473480   -1.7194017792   -0.4963145876
13   
From optimize.out: Frame 8 / 37, Energy=    -286.8329242316
C        1.4738729760    0.3108248320   -2.2454183355
C        1.1145520138   -0.9971498220   -2.2655479496
C       -0.3089231134   -1.3695592299   -2.4194490591
C       -1.1303555507    0.3405339354   -1.0814293202
C       -0.6265419900    1.1566809462   -2.2379008459
N        0.5939784292    1.3251650789   -2.5975008125
H        2.5158057287    0.5996589944   -2.1529499357
H        1.8177037545   -1.7265562091   -1.8701894885
H       -0.7179423066   -1.5959693048   -3.4088190593
H       -1.1162792704    0.8069960219   -0.0922720301
H       -1.3804916457    1.6867422311   -2.8232813646
C       -1.1794051628   -0.9888677871   -1.2622991273
H       -1.4724437368   -1.6950810953   -0.4881013231
13   
From optimize.out: Frame 9 / 37, Energy=    -286.8424465427
C        1.4785442468    0.2997504647   -2.2537303061
C        1.1196634632   -1.0060742032   -2.2666695531
C       -0.3003400204   -1.4003292953   -2.4094116171
C       -1.1423007698    0.3442158074   -1.0938144547
C       -0.6321008537    1.1909286335   -2.2236738442
N        0.5956847269    1.3249916000   -2.5888231502
H        2.5203960172    0.5868048530   -2.1615677576
H        1.8414730396   -1.7382116463   -1.9099241615
H       -0.7249499648   -1.6638045498   -3.3817287324
H       -1.2170359946    0.8123030207   -0.1095048319
H       -1.3678377316    1.7681491101   -2.7885352958
C       -1.1407504722   -0.9872440199   -1.2714907388
H       -1.4469155611   -1.6780611830   -0.4862842080
13   
From optimize.out: Frame 10 / 37, Energy=    -286.8508919661
C        1.4752750275    0.2900903172   -2.2635489679
C        1.1278786198   -1.0166892094   -2.2724291930
C       -0.2839220432   -1.4426236427   -2.4019293397
C       -1.1524336261    0.3514657436   -1.1049421531
C       -0.6295536312    1.2237513246   -2.2042716164
N        0.5889660587    1.3217047663   -2.5783299248
H        2.5154766876    0.5822420077   -2.1768218587
H        1.8722694108   -1.7453529966   -1.9556130937
H       -0.7164203592   -1.7464285240   -3.3578644289
H       -1.3106477040    0.8161355094   -0.1299687971
H       -1.3429590286    1.8526655645   -2.7412352209
C       -1.1162294853   -0.9799738390   -1.2758480920
H       -1.4441698012   -1.6535684297   -0.4823559652
13   
From optimize.out: Frame 11 / 37, Energy=    -286.8585847363
C        1.4778065636    0.2814446161   -2.2761490759
C        1.1365413302   -1.0268174304   -2.2767655302
C       -0.2698216124   -1.4687200066   -2.3865546491
C       -1.1667726295    0.3586639063   -1.1172703683
C       -0.6294086747    1.2524838822   -2.1849836045
N        0.5927458318    1.3206037434   -2.5701113207
H        2.5186430914    0.5753577815   -2.1979062274
H        1.8999893898   -1.7546153315   -2.0037073914
H       -0.7076417056   -1.8212653408   -3.3221442526
H       -1.4108677355    0.8181058132   -0.1582630098
H       -1.3225096104    1.9296047840   -2.6897041048
C       -1.0935170060   -0.9736946946   -1.2781429788
H       -1.4416571069   -1.6377331311   -0.4834561379
13   
From optimize.out: Frame 12 / 37, Energy=    -286.8654868593
C        1.4771151375    0.2771210521   -2.2898473843
C        1.1440002786   -1.0340753815   -2.2799640905
C       -0.2544205501   -1.4966066171   -2.3677816190
C       -1.1772562562    0.3666461604   -1.1294687548
C       -0.6229961898    1.2788778999   -2.1636341720
N        0.5945610576    1.3204223962   -2.5650479610
H        2.5189907686    0.5735654190   -2.2276467231
H        1.9264789272   -1.7574481563   -2.0502757523
H       -0.6895514326   -1.9065668418   -3.2801250669
H       -1.4986731399    0.8164307341   -0.1892145868
H       -1.2954968190    2.0043375296   -2.6276058144
C       -1.0818620437   -0.9659993067   -1.2817703095
H       -1.4573596126   -1.6232862963   -0.4927764168
13   
From optimize.out: Frame 13 / 37, Energy=    -286.8717859321
C        1.4789681874    0.2735056735   -2.3049205991
C        1.1523208880   -1.0404595735   -2.2890094703
C       -0.2377796796   -1.5181960436   -2.3480671422
C       -1.1896644236    0.3763297508   -1.1393423670
C       -0.6161797125    1.3046079087   -2.1383791175
N        0.6010996929    1.3248926307   -2.5522605137
H        2.5225241235    0.5694843118   -2.2581334497
H        1.9507964147   -1.7604808779   -2.1058647424
H       -0.6682012170   -1.9939710847   -3.2295317535
H       -1.5892434461    0.8160844933   -0.2248892517
H       -1.2703984430    2.0673790759   -2.5680650860
C       -1.0716428039   -0.9574164849   -1.2830126538
H       -1.4790694551   -1.6083411883   -0.5036825045
13   
From optimize.out: Frame 14 / 37, Energy=    -286.8775162477
C        1.4781326847    0.2747101460   -2.3183278917
C        1.1562882342   -1.0422398292   -2.2930368843
C       -0.2240097337   -1.5377812393   -2.3246577273
C       -1.1978765177    0.3833620327   -1.1515089706
C       -0.6065175079    1.3262774403   -2.1179015229
N        0.6051807238    1.3294305148   -2.5490329143
H        2.5234608737    0.5694789780   -2.2923804779
H        1.9687669140   -1.7569211073   -2.1529570339
H       -0.6420725674   -2.0841492601   -3.1697356325
H       -1.6584256306    0.8104063141   -0.2602314803
H       -1.2398782032    2.1311136378   -2.4997187640
C       -1.0701242447   -0.9509122842   -1.2901103677
H       -1.5093948995   -1.5993567519   -0.5255589840
13   
From optimize.out: Frame 15 / 37, Energy=    -286.8829611968
C        1.4805398377    0.2748073605   -2.3330799748
C        1.1619013272   -1.0453969399   -2.3061221845
C       -0.2070560042   -1.5540935603   -2.3017653022
C       -1.2089940202    0.3931658702   -1.1593612144
C       -0.5963317408    1.3500695934   -2.0890259666
N        0.6142148670    1.3390796092   -2.5313431262
H        2.5279255896    0.5661645396   -2.3253123945
H        1.9846379930   -1.7570318446   -2.2147652189
H       -0.6124193007   -2.1718776974   -3.1019329005
H       -1.7365387448    0.8087284821   -0.3005483541
H       -1.2148750641    2.1794517667   -2.4423724915
C       -1.0666717912   -0.9428581357   -1.2930763871
H       -1.5428028228   -1.5867904521   -0.5464531361
13   
From optimize.out: Frame 16 / 37, Energy=    -286.8881831907
C        1.4813747168    0.2781172890   -2.3466462776
C        1.1637814308   -1.0445997159   -2.3146778559
C       -0.1928780418   -1.5676119407   -2.2769875261
C       -1.2175529278    0.3996646326   -1.1694517853
C       -0.5857275494    1.3685394068   -2.0672746452
N        0.6204625746    1.3473524918   -2.5236993782
H        2.5301833937    0.5654050944   -2.3600436606
H        1.9942848907   -1.7519190873   -2.2671954074
H       -0.5792596031   -2.2567273608   -3.0259706592
H       -1.7964724352    0.8032939852   -0.3387185374
H       -1.1846777456    2.2293308151   -2.3766484230
C       -1.0695145247   -0.9375788589   -1.3013824261
H       -1.5804740533   -1.5798481597   -0.5764620694
13   
From optimize.out: Frame 17 / 37, Energy=    -286.8932750543
C        1.4835105633    0.2814288318   -2.3602119284
C        1.1651970229   -1.0440617340   -2.3268876055
C       -0.1778455310   -1.5778996644   -2.2511755654
C       -1.2263622191    0.4066018666   -1.1770805937
C       -0.5735144487    1.3875087235   -2.0405746642
N        0.6288876013    1.3579256478   -2.5098396093
H        2.5336083182    0.5637370927   -2.3952228094
H        1.9997351657   -1.7486402334   -2.3254383482
H       -0.5431737306   -2.3349471412   -2.9420849770
H       -1.8564700840    0.7990763373   -0.3792967464
H       -1.1577512164    2.2690769352   -2.3183904642
C       -1.0723227544   -0.9326259461   -1.3087891531
H       -1.6199685617   -1.5737621241   -0.6101661866
13   
From optimize.out: Frame 18 / 37, Energy=    -286.8982517582
C        1.4861654227    0.2855674854   -2.3744721273
C        1.1652503028   -1.0420978204   -2.3394026425
C       -0.1633339597   -1.5859897261   -2.2248331993
C       -1.2350529471    0.4120715452   -1.1846572042
C       -0.5618886424    1.4029122434   -2.0166814582
N        0.6369443152    1.3684496468   -2.4978459524
H        2.5368910441    0.5623503791   -2.4308713245
H        2.0008380747   -1.7442330282   -2.3808588918
H       -0.5039338334   -2.4067879181   -2.8519561191
H       -1.9093614473    0.7946871922   -0.4193212463
H       -1.1297602553    2.3057821635   -2.2578603695
C       -1.0776543268   -0.9295192542   -1.3177176540
H       -1.6615736218   -1.5697743168   -0.6486804622
13   
From optimize.out: Frame 19 / 37, Energy=    -286.9030567768
C        1.4886823902    0.2894371867   -2.3888967860
C        1.1644290101   -1.0398803261   -2.3521452381
C       -0.1495612494   -1.5912772595   -2.1978470216
C       -1.2428699872    0.4169176892   -1.1908082608
C       -0.5488051259    1.4176389142   -1.9898812672
N        0.6450076074    1.3791922722   -2.4849032457
H        2.5394115982    0.5604743105   -2.4691339945
H        1.9982146672   -1.7404383633   -2.4343760686
H       -0.4617954136   -2.4702455871   -2.7563779693
H       -1.9581945852    0.7906716998   -0.4596732028
H       -1.1033214062    2.3364808641   -2.2002152833
C       -1.0838941390   -0.9276417587   -1.3279859795
H       -1.7037732408   -1.5679110503   -0.6929143339
13   
From optimize.out: Frame 20 / 37, Energy=    -286.9075905897
C        1.4913579239    0.2933677941   -2.4053582180
C        1.1630803244   -1.0365870701   -2.3656357483
C       -0.1371074780   -1.5958666285   -2.1712581834
C       -1.2500560605    0.4209985203   -1.1959695586
C       -0.5364957006    1.4291246910   -1.9649792052
N        0.6528043937    1.3900090051   -2.4730319392
H        2.5414206520    0.5588080682   -2.5079281027
H        1.9930859046   -1.7360298217   -2.4833961589
H       -0.4173998038   -2.5270978720   -2.6568146458
H       -2.0016446469    0.7872400797   -0.4988465676
H       -1.0765395668    2.3638359852   -2.1407606065
C       -1.0915244994   -0.9273927325   -1.3392494058
H       -1.7474513168   -1.5669914269   -0.7419303114
13   
From optimize.out: Frame 21 / 37, Energy=    -286.9117338504
C        1.4926236917    0.2960110766   -2.4224767118
C        1.1618259425   -1.0334001837   -2.3783270298
C       -0.1258709641   -1.5984077738   -2.1438525744
C       -1.2554431526    0.4244206000   -1.1995713976
C       -0.5231442189    1.4398332394   -1.9364873213
N        0.6595558711    1.4001037968   -2.4611952655
H        2.5410055044    0.5561984478   -2.5513169117
H        1.9868115112   -1.7322926714   -2.5269704753
H       -0.3710201606   -2.5743037672   -2.5542508269
H       -2.0407775392    0.7844949421   -0.5381791705
H       -1.0514880364    2.3864266117   -2.0822896756
C       -1.0989516391   -0.9286878306   -1.3522685210
H       -1.7915966844   -1.5669778960   -0.7979727700
13   
From optimize.out: Frame 22 / 37, Energy=    -286.9153800049
C        1.4932097052    0.2986576729   -2.4433677634
C        1.1605885467   -1.0289167714   -2.3914735593
C       -0.1166589843   -1.6024533577   -2.1164013569
C       -1.2600977075    0.4281898365   -1.2018219893
C       -0.5110440563    1.4464944908   -1.9107632956
N        0.6665764228    1.4105549134   -2.4508553905
H        2.5395085137    0.5541957777   -2.5958670140
H        1.9805792186   -1.7273788625   -2.5637389944
H       -0.3244850674   -2.6155534422   -2.4496664017
H       -2.0760015336    0.7828769520   -0.5763216934
H       -1.0249316449    2.4061467511   -2.0198613237
C       -1.1074686717   -0.9315646476   -1.3658072900
H       -1.8362446156   -1.5678307214   -0.8592125792
13   
From optimize.out: Frame 23 / 37, Energy=    -286.9184196809
C        1.4909724737    0.2982157722   -2.4634340913
C        1.1610284430   -1.0270149852   -2.4034378419
C       -0.1066768929   -1.6034390780   -2.0861477777
C       -1.2640768931    0.4311484145   -1.2052111273
C       -0.4999384005    1.4536072980   -1.8791459379
N        0.6722014105    1.4192398539   -2.4374648936
H        2.5331212116    0.5495517092   -2.6486993656
H        1.9754981483   -1.7257746188   -2.5961301489
H       -0.2752624013   -2.6452224734   -2.3439129963
H       -2.1087304589    0.7828297045   -0.6183658241
H       -1.0013854244    2.4231514505   -1.9555350259
C       -1.1134014253   -0.9367790665   -1.3814667886
H       -1.8798196648   -1.5660953893   -0.9262068325
13   
From optimize.out: Frame 24 / 37, Energy=    -286.9206801634
C        1.4887141079    0.3011321900   -2.4890177964
C        1.1599327121   -1.0215078391   -2.4136207173
C       -0.1005187410   -1.6107895345   -2.0544214531
C       -1.2696284253    0.4375328493   -1.2083982157
C       -0.4891919445    1.4540163580   -1.8553102874
N        0.6827735548    1.4309608377   -2.4240861710
H        2.5274714135    0.5480962716   -2.7017536190
H        1.9695588670   -1.7199651109   -2.6241639761
H       -0.2290839781   -2.6740035407   -2.2373501623
H       -2.1407920438    0.7836067866   -0.6587683024
H       -0.9711567661    2.4365589785   -1.8866628161
C       -1.1242547571   -0.9420163910   -1.3963618378
H       -1.9202938737   -1.5702032637   -0.9952432971
13   
From optimize.out: Frame 25 / 37, Energy=    -286.9220406277
C        1.4844862878    0.2966711889   -2.5047122239
C        1.1644904375   -1.0263921690   -2.4238671382
C       -0.0849786847   -1.6088905905   -2.0161024367
C       -1.2809067169    0.4403565126   -1.2245415370
C       -0.4871281171    1.4599441701   -1.8229406338
N        0.6926778961    1.4374940385   -2.3944112627
H        2.5126424759    0.5393833291   -2.7699060307
H        1.9644323160   -1.7268413324   -2.6601756210
H       -0.1728137698   -2.6855070083   -2.1325096941
H       -2.1744004093    0.7882693130   -0.7142268267
H       -0.9489790815    2.4529172997   -1.8103564678
C       -1.1275138122   -0.9521112499   -1.4124877394
H       -1.9584786960   -1.5618749102   -1.0589210394
13   
From optimize.out: Frame 26 / 37, Energy=    -286.9227005539
C        1.4789034814    0.3022742709   -2.5283710855
C        1.1635400436   -1.0217666739   -2.4231866350
C       -0.0791626338   -1.6196242859   -1.9774266557
C       -1.2926834901    0.4505442011   -1.2412188980
C       -0.4731989695    1.4580399584   -1.7938995456
N        0.7142851607    1.4500852632   -2.3624105260
H        2.4974385864    0.5386836199   -2.8417613496
H        1.9549978098   -1.7212869833   -2.6897895386
H       -0.1281171528   -2.7038113236   -2.0258438630
H       -2.2079427306    0.7894637949   -0.7645284651
H       -0.9148314743    2.4600644979   -1.7409497824
C       -1.1427528131   -0.9564875361   -1.4316749920
H       -1.9869456920   -1.5727602117   -1.1240973150
13   
From optimize.out: Frame 27 / 37, Energy=    -286.9230283372
C        1.4780983679    0.3023347542   -2.5346271948
C        1.1658031794   -1.0255781435   -2.4274106763
C       -0.0668547372   -1.6209413571   -1.9553101902
C       -1.3122519443    0.4527397762   -1.2740250034
C       -0.4801675842    1.4604095976   -1.7932786948
N        0.7314121984    1.4533188559   -2.3290296803
H        2.4888006819    0.5341342938   -2.8761214300
H        1.9490052002   -1.7249444416   -2.7160346802
H       -0.1002670674   -2.7066896075   -1.9825085330
H       -2.2291438253    0.7931832886   -0.8013770508
H       -0.8958887165    2.4698262132   -1.6912702164
C       -1.1488037534   -0.9624443855   -1.4375248775
H       -1.9962118739   -1.5719302525   -1.1266404236
13   
From optimize.out: Frame 28 / 37, Energy=    -286.9235710770
C        1.4705642409    0.3050278161   -2.5415632144
C        1.1651959778   -1.0281530706   -2.4253453441
C       -0.0582436674   -1.6191606382   -1.9312172899
C       -1.3291584651    0.4535205234   -1.3171646660
C       -0.4719576119    1.4632010733   -1.7652583776
N        0.7536640953    1.4542498842   -2.2871231749
H        2.4663905544    0.5288816347   -2.9312831239
H        1.9439552305   -1.7240304227   -2.7332536201
H       -0.0760545899   -2.7056620442   -1.9317511709
H       -2.2497880711    0.7924914260   -0.8497253239
H       -0.8763578107    2.4744803528   -1.6457595214
C       -1.1549654075   -0.9667159409   -1.4532654024
H       -1.9997143496   -1.5747120022   -1.1324484220
13   
From optimize.out: Frame 29 / 37, Energy=    -286.9239547601
C        1.4599883722    0.3124130840   -2.5539512876
C        1.1588712839   -1.0237186674   -2.4265032040
C       -0.0536641247   -1.6233966420   -1.9184948069
C       -1.3429914275    0.4532162377   -1.3590073646
C       -0.4658612746    1.4594244049   -1.7489802510
N        0.7734590632    1.4525338365   -2.2596974412
H        2.4480169595    0.5276876828   -2.9664400506
H        1.9422282054   -1.7138981144   -2.7324680856
H       -0.0664790933   -2.7107191874   -1.9004936734
H       -2.2640690280    0.7930643556   -0.8920220767
H       -0.8515636453    2.4721876138   -1.6024354931
C       -1.1593323793   -0.9682176979   -1.4625900136
H       -1.9950727858   -1.5771583143   -1.1220749031
13   
From optimize.out: Frame 30 / 37, Energy=    -286.9240991265
C        1.4620908316    0.3165975109   -2.5517904802
C        1.1568491024   -1.0216864829   -2.4246602842
C       -0.0500739796   -1.6191891855   -1.9071827030
C       -1.3447042419    0.4528446443   -1.3627788397
C       -0.4622148565    1.4568222176   -1.7406959925
N        0.7823138902    1.4544733788   -2.2546652863
H        2.4455097478    0.5265922445   -2.9773759403
H        1.9352054733   -1.7125814060   -2.7397920060
H       -0.0705183836   -2.7069672199   -1.9011029979
H       -2.2758322117    0.7914728660   -0.9149963992
H       -0.8455957065    2.4698716156   -1.5974018736
C       -1.1590194273   -0.9702162819   -1.4560201747
H       -1.9904801124   -1.5846153097   -1.1166956738
13   
From optimize.out: Frame 31 / 37, Energy=    -286.9242523273
C        1.4607163704    0.3188600323   -2.5478129179
C        1.1562358709   -1.0232604162   -2.4285334210
C       -0.0489473244   -1.6243844565   -1.9154193666
C       -1.3396647889    0.4536582919   -1.3599211741
C       -0.4656523394    1.4581355400   -1.7306666785
N        0.7812123842    1.4526470970   -2.2562861606
H        2.4441122824    0.5294143653   -2.9703768406
H        1.9337511902   -1.7127254897   -2.7465696095
H       -0.0813041625   -2.7128671405   -1.9059543107
H       -2.2867904263    0.7868936126   -0.9427335770
H       -0.8420060276    2.4734632953   -1.5968788005
C       -1.1486021318   -0.9684920726   -1.4462720330
H       -1.9795307714   -1.5779240673   -1.0977337616
13   
From optimize.out: Frame 32 / 37, Energy=    -286.9242960251
C        1.4569685653    0.3193143104   -2.5544374723
C        1.1541615802   -1.0234827941   -2.4298053468
C       -0.0492779401   -1.6204591061   -1.9111425809
C       -1.3407139458    0.4544812671   -1.3637879925
C       -0.4665989300    1.4567792635   -1.7327350644
N        0.7858021034    1.4539108138   -2.2572055526
H        2.4451762752    0.5266704550   -2.9687408661
H        1.9301761349   -1.7110109314   -2.7562212642
H       -0.0742544731   -2.7087650909   -1.8924571586
H       -2.2943535810    0.7881054511   -0.9617644572
H       -0.8340533703    2.4724591472   -1.5766230777
C       -1.1504798769   -0.9717125193   -1.4457567452
H       -1.9790224160   -1.5828716747   -1.0944810728
13   
From optimize.out: Frame 33 / 37, Energy=    -286.9243242796
C        1.4607703477    0.3181398585   -2.5478825503
C        1.1568285034   -1.0248920299   -2.4247151009
C       -0.0488196997   -1.6218623976   -1.9124868367
C       -1.3395719771    0.4552455812   -1.3566303595
C       -0.4672840951    1.4574241988   -1.7377722363
N        0.7824216497    1.4530526939   -2.2607679677
H        2.4488772822    0.5278591081   -2.9631271390
H        1.9294194945   -1.7131604611   -2.7589039060
H       -0.0752882292   -2.7097526935   -1.9080907958
H       -2.2922620526    0.7898242068   -0.9528058996
H       -0.8411217950    2.4726683281   -1.5889967513
C       -1.1507233515   -0.9701514767   -1.4422149568
H       -1.9797159517   -1.5809763249   -1.0907641515
13   
From optimize.out: Frame 34 / 37, Energy=    -286.9243322818
C        1.4597349121    0.3183740982   -2.5489390432
C        1.1569169781   -1.0252538187   -2.4251557963
C       -0.0488988046   -1.6225104385   -1.9123710163
C       -1.3400793071    0.4554785049   -1.3605452453
C       -0.4668998523    1.4578847497   -1.7351539493
N        0.7823090737    1.4526532485   -2.2592799418
H        2.4457981480    0.5280460154   -2.9688549354
H        1.9304648312   -1.7137420749   -2.7562817442
H       -0.0733055553   -2.7105255167   -1.9026651604
H       -2.2924650557    0.7898847609   -0.9559630536
H       -0.8394883987    2.4728231657   -1.5823398785
C       -1.1502065276   -0.9700753655   -1.4442687885
H       -1.9803503162   -1.5796187373   -1.0933400988
13   
From optimize.out: Frame 35 / 37, Energy=    -286.9243356283
C        1.4588186682    0.3184042153   -2.5514678417
C        1.1568880729   -1.0252453873   -2.4254039320
C       -0.0497104776   -1.6221049646   -1.9138853203
C       -1.3404803055    0.4553125593   -1.3609352128
C       -0.4664226601    1.4581024996   -1.7343115305
N        0.7808100745    1.4522610405   -2.2624516294
H        2.4464648867    0.5274909147   -2.9679648505
H        1.9322130590   -1.7135345132   -2.7528422601
H       -0.0732915918   -2.7101043666   -1.9028231161
H       -2.2923274951    0.7898793785   -0.9553025279
H       -0.8385468869    2.4729806742   -1.5798311839
C       -1.1506470319   -0.9700713135   -1.4448424842
H       -1.9802381866   -1.5799521453   -1.0930967621
13   
From optimize.out: Frame 36 / 37, Energy=    -286.9243383249
C        1.4588822193    0.3182448950   -2.5517935689
C        1.1575953172   -1.0253902753   -2.4243693943
C       -0.0493468773   -1.6220775538   -1.9126188884
C       -1.3415447826    0.4559117043   -1.3623390678
C       -0.4661761171    1.4579855601   -1.7337523665
N        0.7805776998    1.4520262373   -2.2630404618
H        2.4458877636    0.5275781285   -2.9702099586
H        1.9323347200   -1.7139279325   -2.7530152248
H       -0.0723847459   -2.7100193855   -1.9018492202
H       -2.2935340567    0.7905828583   -0.9571711494
H       -0.8374932625    2.4728990852   -1.5762435849
C       -1.1509270430   -0.9700066214   -1.4450634065
H       -1.9803407090   -1.5803881085   -1.0936923593
