13   
From qcfsm.out: Frame 75 / 75, Energy=       0.0000000000
C        1.9937342884    0.1985923771   -0.3003433535
C        1.1947837858   -0.8935734369   -0.4464968745
C       -0.2142280556   -0.5668360172   -0.6115426285
C       -1.1609038020   -0.0835125542    0.3993665766
C        0.0591559468    1.3066691356   -0.3228135891
N        1.3356760192    1.4060957710   -0.2120948043
H        3.0771242776    0.1980426309   -0.3101085985
H        1.5774755554   -1.8910150884   -0.6436702143
H       -0.7442830671   -1.2044328569   -1.3397589336
H       -2.4226264002   -0.4420246537    0.1327280954
H       -0.5958851144    2.1604291435   -0.1557178084
C       -1.7511287335   -0.4290825293    1.5366817919
H       -2.4716031207    0.1563052156    2.1121804281
