13   
From optimize.out: Frame 1 / 22, Energy=    -286.6022567870
C        1.6673851774    0.2388028377   -2.2478310970
C        1.1912742399   -1.0232079390   -2.1757510783
C       -0.1377614598   -1.2514248597   -2.3847390203
C       -1.4357037666    0.4300900596   -0.6938140096
C       -0.8734492289    0.9378618231   -1.9886648193
N        0.8982601130    1.4266734893   -2.7275716154
H        2.6794492976    0.1042152354   -1.8721750854
H        1.7815874729   -1.7052298026   -1.5603347859
H       -0.7744641315   -1.7959529091   -3.1618115797
H       -1.7809589359    0.9624184188    0.2466247377
H       -1.4381541523    1.5474150056   -2.7404365407
C       -1.3756383870   -0.8460011898   -1.0656212149
H       -1.7691490608   -1.5234427430   -0.4017050979
13   
From optimize.out: Frame 2 / 22, Energy=    -286.6914074597
C        1.4486959961    0.2908245837   -2.1186776886
C        1.1180187101   -1.0169237921   -2.1692427764
C       -0.2119463600   -1.2544279380   -2.4011120280
C       -1.2299028237    0.4177942672   -0.7688056983
C       -0.6379220645    0.7846346275   -2.1134577115
N        0.4792431158    1.3558224507   -2.4449632262
H        2.4764367754    0.2998398528   -1.7578544120
H        1.7635540592   -1.7064309173   -1.6202502524
H       -0.8508551973   -1.7308475211   -3.2058826968
H       -1.4549414509    1.0313316773    0.1479122831
H       -1.1393969101    1.4310624510   -2.8706299012
C       -1.3490398656   -0.8732047262   -1.0684370257
H       -1.7792668066   -1.5272575892   -0.3824300727
13   
From optimize.out: Frame 3 / 22, Energy=    -286.7681551986
C        1.5013899958    0.3021889532   -2.0004286235
C        1.0935690191   -0.9803297418   -2.1645585724
C       -0.2721005863   -1.1911660690   -2.3904216116
C       -1.1586998718    0.4184308351   -0.8477331260
C       -0.7380313714    0.7021617102   -2.2867018899
N        0.5836175380    1.4002317016   -2.1663155905
H        2.5425065347    0.2756046513   -1.6738233191
H        1.7333710969   -1.7306858035   -1.6933788222
H       -0.9095798509   -1.6135896410   -3.2062274882
H       -1.3121079826    1.0904763016    0.0262860345
H       -1.3818300947    1.2744052020   -2.9857648510
C       -1.3220909307   -0.8845010021   -1.0470594893
H       -1.7273363181   -1.5610096713   -0.3377038576
13   
From optimize.out: Frame 4 / 22, Energy=    -286.8098455963
C        1.5475858576    0.3294185814   -2.0123708946
C        1.0648614899   -0.9391410830   -2.1549802187
C       -0.3379172661   -1.1217867511   -2.3406989630
C       -1.2021098669    0.3940348757   -0.8506748003
C       -0.6679875955    0.6456383834   -2.2599530458
N        0.6708936530    1.4045168664   -2.1683277614
H        2.6057684788    0.3301924182   -1.7412466565
H        1.6964613522   -1.7248074073   -1.7338664550
H       -0.9563388683   -1.5343778198   -3.1573095738
H       -1.3963755204    1.0802478354   -0.0125585225
H       -1.2936914333    1.1778356229   -2.9973619947
C       -1.3404961569   -0.9126599356   -1.0162473702
H       -1.7579769461   -1.6268941603   -0.3282349500
13   
From optimize.out: Frame 5 / 22, Energy=    -286.8357418562
C        1.5693282484    0.3070111117   -1.9937020307
C        1.0791951994   -0.9615666560   -2.1444165288
C       -0.3588489341   -1.0628514319   -2.2938384441
C       -1.2046157618    0.4093507531   -0.8750762283
C       -0.6471223524    0.6683507626   -2.2751422404
N        0.6338562280    1.2679183306   -2.1065425828
H        2.6327373463    0.4089805514   -1.7649920214
H        1.7016437832   -1.7850587122   -1.7869848536
H       -0.9570250951   -1.4431480469   -3.1253352679
H       -1.4414056872    1.1030966323   -0.0699780729
H       -1.3175035393    1.1436955494   -3.0039094230
C       -1.3157714598   -0.9056716429   -1.0033750598
H       -1.7417907976   -1.6478897749   -0.3305384530
13   
From optimize.out: Frame 6 / 22, Energy=    -286.8572622799
C        1.5826620471    0.3120679266   -2.0072077538
C        1.0670723219   -0.9595343539   -2.1431974597
C       -0.3924316501   -0.9832965347   -2.2542209793
C       -1.2553943171    0.4148275366   -0.8631699649
C       -0.5957903729    0.6084239069   -2.2207242586
N        0.6788552291    1.2758229122   -2.0955768574
H        2.6502363049    0.4424130848   -1.8258872577
H        1.6694099920   -1.8199825899   -1.8425103957
H       -0.9594624411   -1.3625815224   -3.1067790327
H       -1.5497056518    1.1315827583   -0.1025087211
H       -1.2279687349    1.0381189182   -3.0049071290
C       -1.3051394744   -0.9060955514   -0.9691416858
H       -1.7296660748   -1.6895490648   -0.3379997109
13   
From optimize.out: Frame 8 / 22, Energy=    -286.8682778923
C        1.6068942425    0.2678555822   -2.0434033055
C        1.0564904643   -1.0303007278   -2.1268594504
C       -0.4249590748   -0.9425003919   -2.2342969654
C       -1.3646909008    0.4346849766   -0.8883328134
C       -0.6038171277    0.7406179014   -2.1667589687
N        0.7684516522    1.2958760213   -2.0599655128
H        2.6732109253    0.4443035398   -1.9157505544
H        1.6171391441   -1.9279922682   -1.8708015980
H       -0.8936582784   -1.4429900157   -3.0900411389
H       -1.7812938935    1.1111888378   -0.1507031853
H       -1.2076119647    1.1558238729   -2.9789921201
C       -1.2340211577   -0.8979967319   -0.9475838393
H       -1.5794568528   -1.7063531703   -0.3003417545
13   
From optimize.out: Frame 9 / 22, Energy=    -286.8684049640
C        1.5766838882    0.2853462236   -2.0085531247
C        1.0483342222   -1.0266991502   -2.0910954543
C       -0.4375246996   -0.8975820888   -2.2153312509
C       -1.2802946011    0.4284444222   -0.8720502986
C       -0.5946914604    0.6035435143   -2.2265683032
N        0.6977015865    1.2759390828   -2.0803457725
H        2.6321392545    0.5303011746   -1.8922056783
H        1.6047148473   -1.9333403412   -1.8733619324
H       -0.8677795893   -1.3912519986   -3.0945110061
H       -1.6122767865    1.1511437260   -0.1367060236
H       -1.2065523947    1.1127478468   -2.9798803011
C       -1.2687295900   -0.9040720830   -0.9496012591
H       -1.6590474990   -1.7323029023   -0.3536208019
13   
From optimize.out: Frame 10 / 22, Energy=    -286.8743192905
C        1.6046524333    0.2672024376   -2.0217248392
C        1.0572797911   -1.0268313337   -2.1128895310
C       -0.4251142622   -0.8953923185   -2.2412905009
C       -1.3496816851    0.4462709788   -0.8643180340
C       -0.5953860917    0.6706963068   -2.1728010907
N        0.7315050749    1.2664118995   -2.0642810107
H        2.6673119976    0.4834915593   -1.9092431126
H        1.6090708909   -1.9410791019   -1.9204342245
H       -0.8718111003   -1.4299638978   -3.0910764950
H       -1.7596432278    1.1473680041   -0.1424557573
H       -1.1863934448    1.1123108799   -2.9838405912
C       -1.2469170133   -0.8850616793   -0.9307566980
H       -1.6021961848   -1.7132063086   -0.3187193215
13   
From optimize.out: Frame 12 / 22, Energy=    -286.8750028583
C        1.5949469826    0.2649862044   -2.0130406989
C        1.0588466606   -1.0305961196   -2.1135018512
C       -0.4240178525   -0.9058820322   -2.2168735489
C       -1.3604361459    0.4441816853   -0.8770093259
C       -0.5811810452    0.6738109705   -2.1776873482
N        0.7254870380    1.2742844205   -2.0360033052
H        2.6573771890    0.4784990695   -1.9049049438
H        1.6157632502   -1.9544169298   -2.0007389350
H       -0.8795783045   -1.4435207816   -3.0610322728
H       -1.8129064489    1.1474278667   -0.1833614201
H       -1.1462391981    1.1458692188   -2.9920057441
C       -1.2325731944   -0.8876973306   -0.9103583596
H       -1.5828117530   -1.7047288156   -0.2873134530
13   
From optimize.out: Frame 14 / 22, Energy=    -286.8753686936
C        1.5962577429    0.2648440603   -2.0053045457
C        1.0559529970   -1.0271576655   -2.1135779803
C       -0.4282599614   -0.9040794565   -2.2315599634
C       -1.3572252149    0.4472121845   -0.8794706162
C       -0.5962456560    0.6676195562   -2.1869570593
N        0.7288259242    1.2697415709   -2.0348923776
H        2.6556059165    0.4797818480   -1.8718159030
H        1.6117810879   -1.9535322651   -2.0172849883
H       -0.8723504643   -1.4656040511   -3.0646499201
H       -1.7884239112    1.1511177950   -0.1737986055
H       -1.1639101495    1.1469030186   -2.9939570147
C       -1.2419904045   -0.8846251814   -0.9263063109
H       -1.5673407287   -1.6900039875   -0.2742559217
13   
From optimize.out: Frame 16 / 22, Energy=    -286.8754480708
C        1.5920588289    0.2630423982   -1.9972072361
C        1.0518447742   -1.0283977549   -2.1026360120
C       -0.4303927886   -0.8993827305   -2.2278563723
C       -1.3547145119    0.4466539716   -0.8808591620
C       -0.5916476959    0.6720433930   -2.1887355490
N        0.7257032821    1.2703001706   -2.0451013228
H        2.6518862827    0.4766695207   -1.8653593820
H        1.6097066522   -1.9557889296   -2.0335074011
H       -0.8758462636   -1.4589401617   -3.0616080855
H       -1.7963937619    1.1490489684   -0.1804536059
H       -1.1580498166    1.1468636234   -2.9995239759
C       -1.2346476499   -0.8854226141   -0.9205757245
H       -1.5568301537   -1.6944724288   -0.2704073775
13   
From optimize.out: Frame 18 / 22, Energy=    -286.8754938175
C        1.5936913034    0.2624919185   -1.9969618149
C        1.0527402998   -1.0284601108   -2.1059023800
C       -0.4303514645   -0.9030982547   -2.2294420202
C       -1.3596889292    0.4478466920   -0.8825393395
C       -0.5952782045    0.6680921538   -2.1883277506
N        0.7262299151    1.2685796706   -2.0391644625
H        2.6528187395    0.4764289094   -1.8597665256
H        1.6125315617   -1.9553594038   -2.0445442826
H       -0.8755676924   -1.4618544930   -3.0630869287
H       -1.7989320217    1.1518007992   -0.1821281343
H       -1.1559850639    1.1479406423   -2.9997800211
C       -1.2359597533   -0.8834367103   -0.9195928246
H       -1.5535715118   -1.6887543869   -0.2625947221
13   
From optimize.out: Frame 19 / 22, Energy=    -286.8754966574
C        1.5938542724    0.2624472879   -1.9974222195
C        1.0526595309   -1.0284188326   -2.1037694057
C       -0.4304218684   -0.9023594409   -2.2286485103
C       -1.3610946917    0.4482262760   -0.8828952721
C       -0.5942211451    0.6682417719   -2.1873088208
N        0.7256277896    1.2676662888   -2.0369191452
H        2.6531676846    0.4767332658   -1.8623293203
H        1.6131674131   -1.9552496592   -2.0488038297
H       -0.8746840651   -1.4635324245   -3.0612158155
H       -1.8012187267    1.1522108443   -0.1830838540
H       -1.1532882807    1.1481011725   -2.9998976024
C       -1.2363612838   -0.8829671907   -0.9188821640
H       -1.5545094509   -1.6888819329   -0.2626552474
13   
From optimize.out: Frame 20 / 22, Energy=    -286.8754995826
C        1.5934478927    0.2623884014   -1.9957906070
C        1.0523649620   -1.0284315073   -2.1037100336
C       -0.4307165941   -0.9029740532   -2.2288412972
C       -1.3609611096    0.4483965815   -0.8834179682
C       -0.5949669824    0.6680380136   -2.1881702070
N        0.7257588337    1.2679050065   -2.0374886620
H        2.6525268607    0.4765140232   -1.8587868662
H        1.6134376844   -1.9551273781   -2.0522853826
H       -0.8748169727   -1.4639384695   -3.0615727812
H       -1.7997098058    1.1526206153   -0.1829809253
H       -1.1540706040    1.1474888442   -3.0009660103
C       -1.2362483059   -0.8828096475   -0.9188192491
H       -1.5533686811   -1.6878530037   -0.2610012168
13   
From optimize.out: Frame 21 / 22, Energy=    -286.8755003982
C        1.5935200672    0.2623874152   -1.9954385157
C        1.0523140059   -1.0284347287   -2.1033675946
C       -0.4307316496   -0.9032363980   -2.2287062500
C       -1.3611973625    0.4485294747   -0.8836762174
C       -0.5952700274    0.6678490784   -2.1883123786
N        0.7258472576    1.2681036503   -2.0375828110
H        2.6525344538    0.4763739726   -1.8574965126
H        1.6138436827   -1.9550096549   -2.0544668091
H       -0.8749152882   -1.4643880485   -3.0611477274
H       -1.7994566391    1.1528694622   -0.1830713721
H       -1.1541806371    1.1472442927   -3.0012505752
C       -1.2363274802   -0.8826318074   -0.9187744810
H       -1.5533032051   -1.6874392822   -0.2605399621
