13   
From optimize.out: Frame 1 / 2, Energy=    -286.8516345402
C        1.5189874062    0.3441588063   -0.2644252994
C        0.6216192586   -0.8944701024   -0.0647318007
C       -0.3948716278   -0.5208172525   -1.1474916430
C       -1.0026577606    0.5083552418    0.8086557238
C       -0.5872412418    0.8947648274   -0.6197781154
N        0.8524697132    1.3865955360   -0.5761305058
H        2.5997530457    0.3578848315   -0.1336547130
H        1.1020933072   -1.8728860788   -0.0775504506
H       -1.2194040131   -1.1747379185   -1.4269638383
H       -1.7237658678    1.0470917705    1.4134949852
H       -1.2335871503    1.5920977564   -1.1505755036
C       -0.2723898965   -0.5664110507    1.1480186723
H       -0.2610051735   -1.1016263668    2.0911324881
13   
From optimize.out: Frame 1 / 2, Energy=    -286.8755060422
C        1.6627116761    0.3778067110   -0.5006337762
C        1.0782104491   -0.8976388011   -0.4485777725
C       -0.4036204346   -0.7278291279   -0.3764570402
C       -1.1104355262    0.7382854164    0.9862889302
C       -0.5199593501    0.8483638854   -0.4196107024
N        0.8250850576    1.4099223014   -0.4883141472
H        2.7357840270    0.5630120403   -0.5249218993
H        1.6165178120   -1.8388598983   -0.4216520580
H       -0.9745606891   -1.3222240636   -1.1019714764
H       -1.4356233044    1.4992973835    1.6892218875
H       -1.1708528121    1.2942420276   -1.1818826609
C       -1.0262340259   -0.5960862876    1.0226885103
H       -1.2770228793   -1.3482915870    1.7658222050
