13   
From optimize.out: Frame 1 / 2, Energy=    -286.8549487882
C        1.4686732685    0.4434648827   -0.3530738584
C        0.8844898150   -0.7852997800    0.2158355540
C       -0.7449175472   -0.8064664611    0.1739773918
C       -1.3117588051    0.4547650255   -0.3303380734
C       -0.5481144770    1.5423396026   -0.5757289614
N        0.8460300516    1.5355555592   -0.6348741906
H        2.5303145794    0.3995219587   -0.6079325517
H        1.4411642486   -1.6994013932    0.0000858207
H       -1.2584586499   -1.7272652578   -0.1086158969
H       -2.3826894973    0.4875523101   -0.5153848406
H       -1.0043020908    2.4797194493   -0.8832408489
C        0.0350901728   -0.7972998302    1.4092860838
H        0.0444789317   -1.5271860652    2.2100043717
13   
From optimize.out: Frame 56 / 57, Energy=    -286.8549487881
C        1.4636909194    0.4488115618   -0.3487348095
C        0.8861869592   -0.7761584104    0.2280805545
C       -0.7488729114   -0.7888273082    0.1992723471
C       -1.3131178155    0.4624508599   -0.3268526530
C       -0.5495025630    1.5453033734   -0.5943005912
N        0.8442757600    1.5400112298   -0.6416132410
H        2.5277559743    0.4005701756   -0.5931017574
H        1.4444213102   -1.6880490381    0.0095277303
H       -1.2733045394   -1.7084668808   -0.0658458903
H       -2.3814199028    0.4916642456   -0.5243054341
H       -1.0046627361    2.4758658091   -0.9234635336
C        0.0432074937   -0.7962244738    1.4305813540
H        0.0613420515   -1.6069511439    2.1507559242
13   
From optimize.out: Frame 53 / 57, Energy=    -286.8549356414
C        1.4645691158    0.4535078222   -0.3587216856
C        0.9029426098   -0.7636244500    0.2604639330
C       -0.7337497662   -0.7875145585    0.1846901077
C       -1.3168238269    0.4659893562   -0.3232577775
C       -0.5553064408    1.5411648796   -0.6219041955
N        0.8408886793    1.5232535581   -0.7067336492
H        2.5292652588    0.3942173126   -0.6004934355
H        1.4735553812   -1.6714866546    0.0617287019
H       -1.2421796424   -1.7102851768   -0.1036400001
H       -2.3965759817    0.5095794559   -0.4394827233
H       -0.9993126582    2.4885588642   -0.9155445212
C        0.0175265029   -0.7995949028    1.4400297135
H        0.0152007685   -1.6437655061    2.1228655320
13   
From optimize.out: Frame 48 / 57, Energy=    -286.8547766722
C        1.4677619694    0.4453321175   -0.3868203616
C        0.9096597632   -0.7675995332    0.2570980691
C       -0.7003732905   -0.7931193399    0.1657713255
C       -1.3054731245    0.4576222437   -0.3216415943
C       -0.5603747372    1.5344956140   -0.6278919277
N        0.8290171617    1.5027009066   -0.7391935547
H        2.5352979819    0.4157933913   -0.6168071239
H        1.5081677548   -1.6647753531    0.0946423160
H       -1.2241385083   -1.7163704399   -0.0858003060
H       -2.3900360326    0.5059321939   -0.3779564237
H       -0.9932457340    2.4980448244   -0.8809724110
C        0.0345485032   -0.7745689093    1.4426528523
H       -0.1108117072   -1.6434877160    2.0769191400
13   
From optimize.out: Frame 45 / 57, Energy=    -286.8546416099
C        1.4728459755    0.4321790882   -0.4150743449
C        0.8830832379   -0.7448517556    0.2482038769
C       -0.6741716045   -0.8143203721    0.1326166546
C       -1.2929317481    0.4376695715   -0.3243160080
C       -0.5557047583    1.5227542112   -0.6173191157
N        0.8227194125    1.4802785204   -0.7511819492
H        2.5414056291    0.4167940166   -0.6300355023
H        1.5229677243   -1.6252484619    0.1241229316
H       -1.2203865985   -1.7362399646   -0.0482675558
H       -2.3775140550    0.4992515844   -0.3474572801
H       -0.9823922210    2.4965631548   -0.8345991933
C        0.0727416817   -0.7364122029    1.4609920616
H       -0.2126626755   -1.6284173899    2.0023154245
13   
From optimize.out: Frame 43 / 57, Energy=    -286.8545055827
C        1.4731815560    0.4159667099   -0.4389898804
C        0.8381041174   -0.7269145796    0.2411605245
C       -0.6517576577   -0.8301754739    0.0734937424
C       -1.2927120741    0.4166312505   -0.3414078334
C       -0.5511813823    1.5201385347   -0.6024090255
N        0.8391129634    1.4788563547   -0.7563234628
H        2.5448017358    0.4030434841   -0.6330442839
H        1.4930979591   -1.6048132561    0.1869668862
H       -1.2134158918   -1.7515058179   -0.0166640258
H       -2.3755544676    0.4907499860   -0.3479230020
H       -0.9901232008    2.4948929438   -0.7805738541
C        0.1253443641   -0.6894268741    1.5004068085
H       -0.2388980215   -1.6174432619    1.9153074064
13   
From optimize.out: Frame 40 / 57, Energy=    -286.8543074834
C        1.4706745465    0.4081775831   -0.4654432648
C        0.8166365460   -0.7478367190    0.1957468693
C       -0.6307364017   -0.8416728591    0.0001186637
C       -1.2875358830    0.3967950741   -0.3510719476
C       -0.5409948941    1.5235392823   -0.5887827945
N        0.8545512487    1.5037528723   -0.7590527904
H        2.5486843430    0.4054076720   -0.6271276131
H        1.4440283662   -1.6398652035    0.2435884482
H       -1.1914883846   -1.7671737208   -0.0148440420
H       -2.3708517369    0.4667149614   -0.3362754200
H       -1.0047326701    2.4956144194   -0.7205114853
C        0.1444695742   -0.6219627367    1.5422523068
H       -0.2527046542   -1.5814906255    1.8814030696
13   
From optimize.out: Frame 37 / 57, Energy=    -286.8541201534
C        1.4690232818    0.4016634496   -0.4782310632
C        0.8135443691   -0.7815065184    0.1174035348
C       -0.6157497492   -0.8553098514   -0.0600322373
C       -1.2763930083    0.3794515691   -0.3507610463
C       -0.5308309367    1.5182193500   -0.5729911186
N        0.8559398210    1.5186941296   -0.7408898731
H        2.5520453577    0.4098913618   -0.6061202677
H        1.4179629890   -1.6801882635    0.2227903837
H       -1.1728852510   -1.7834112133   -0.0308349437
H       -2.3602296718    0.4441805060   -0.3221152789
H       -1.0122578053    2.4865963054   -0.6749065719
C        0.1306995410   -0.5407380255    1.5830952333
H       -0.2708689373   -1.5175427994    1.9135932487
13   
From optimize.out: Frame 34 / 57, Energy=    -286.8534554834
C        1.4704959543    0.3956443317   -0.4802249482
C        0.8155833315   -0.8101355893    0.0402030133
C       -0.6052737853   -0.8711333187   -0.1002706237
C       -1.2666323959    0.3653158726   -0.3477855740
C       -0.5236630633    1.5107004082   -0.5564039317
N        0.8541626266    1.5233747423   -0.7124949724
H        2.5559812768    0.4104540061   -0.5847186818
H        1.4096220508   -1.7117086946    0.1613891767
H       -1.1580276209   -1.8017433844   -0.0501325008
H       -2.3508268934    0.4251604172   -0.3119099930
H       -1.0149415283    2.4764344931   -0.6418539668
C        0.1067724301   -0.4673948470    1.6120744888
H       -0.2932523830   -1.4449684372    1.9721285135
13   
From optimize.out: Frame 32 / 57, Energy=    -286.8516107029
C        1.4723138169    0.3876391572   -0.4772347634
C        0.8178145800   -0.8344639857   -0.0272655820
C       -0.5978337962   -0.8882671436   -0.1351914269
C       -1.2589059002    0.3512704670   -0.3430262096
C       -0.5180856156    1.5018837477   -0.5371672181
N        0.8515564448    1.5216841217   -0.6803789241
H        2.5590017575    0.4070421791   -0.5655375720
H        1.4076409447   -1.7384150779    0.0912098474
H       -1.1471431269   -1.8211424652   -0.0779602635
H       -2.3433475292    0.4077386644   -0.3039464220
H       -1.0154671792    2.4658661802   -0.6104399329
C        0.0859720405   -0.3976221506    1.6296692026
H       -0.3135164372   -1.3632136942    2.0372692645
13   
From optimize.out: Frame 26 / 57, Energy=    -286.8310460273
C        1.4735804872    0.3774216256   -0.4709648723
C        0.8191712721   -0.8567409342   -0.0872371260
C       -0.5924101319   -0.9059846014   -0.1688716196
C       -1.2528955213    0.3360926244   -0.3366481669
C       -0.5133047707    1.4920860916   -0.5159253589
N        0.8491193512    1.5165160913   -0.6465523114
H        2.5609572031    0.4007013973   -0.5460562784
H        1.4073448552   -1.7628924575    0.0206281082
H       -1.1397078930   -1.8405591167   -0.1123763069
H       -2.3374843962    0.3907234165   -0.2967487286
H       -1.0150582694    2.4547558715   -0.5786776370
C        0.0699490452   -0.3285417680    1.6382516858
H       -0.3292612314   -1.2735782404    2.1011786120
13   
From optimize.out: Frame 24 / 57, Energy=    -286.8200209778
C        1.4741100895    0.3650424480   -0.4612050414
C        0.8193925492   -0.8777997727   -0.1402439253
C       -0.5888645529   -0.9240758858   -0.2010413724
C       -1.2486308999    0.3196131312   -0.3288037785
C       -0.5090724614    1.4814142460   -0.4929013268
N        0.8471752530    1.5088816656   -0.6115980453
H        2.5618661927    0.3917177621   -0.5249796494
H        1.4072865842   -1.7859764863   -0.0485728229
H       -1.1353752456   -1.8598332584   -0.1513901785
H       -2.3333113431    0.3738594892   -0.2903615991
H       -1.0140204088    2.4430984903   -0.5464321184
C        0.0587870507   -0.2595737068    1.6372655548
H       -0.3393428075   -1.1763681224    2.1602643030
13   
From optimize.out: Frame 21 / 57, Energy=    -286.8063839670
C        1.4737528064    0.3507554932   -0.4476392177
C        0.8183815224   -0.8984190874   -0.1868126296
C       -0.5871678228   -0.9424910218   -0.2308349631
C       -1.2461072298    0.3019892858   -0.3200406464
C       -0.5051652596    1.4698143056   -0.4680483898
N        0.8457296202    1.4995693809   -0.5759632342
H        2.5617332114    0.3803663555   -0.5016406091
H        1.4067269434   -1.8083054891   -0.1152425127
H       -1.1337754078   -1.8790052185   -0.1923937161
H       -2.3308712452    0.3572713817   -0.2855774616
H       -1.0124880415    2.4308202807   -0.5134840410
C        0.0523866559   -0.1898264630    1.6264628696
H       -0.3431357529   -1.0725392036    2.2112145516
13   
From optimize.out: Frame 18 / 57, Energy=    -286.7938030433
C        1.4721019945    0.3343146704   -0.4290851964
C        0.8157592197   -0.9191159448   -0.2258315860
C       -0.5877869212   -0.9612253925   -0.2567510057
C       -1.2458254277    0.2832714421   -0.3110827919
C       -0.5015559583    1.4569736207   -0.4408310318
N        0.8448107474    1.4888237572   -0.5396750089
H        2.5602198804    0.3664345088   -0.4752424780
H        1.4050597377   -1.8301745415   -0.1771240965
H       -1.1352548316   -1.8979944908   -0.2324479743
H       -2.3306587931    0.3413536980   -0.2839466488
H       -1.0103773395    2.4177320578   -0.4795408041
C        0.0522368978   -0.1178774103    1.6033306484
H       -0.3387292062   -0.9625159751    2.2482279741
13   
From optimize.out: Frame 16 / 57, Energy=    -286.7845755134
C        1.4690016109    0.3156491979   -0.4051046898
C        0.8114225934   -0.9401879067   -0.2563582678
C       -0.5909913489   -0.9800977842   -0.2773915848
C       -1.2480895576    0.2637846096   -0.3030443556
C       -0.4982315537    1.4430373745   -0.4111747450
N        0.8444627409    1.4775583875   -0.5030330588
H        2.5571880471    0.3502142885   -0.4456757360
H        1.4014577661   -1.8520446880   -0.2304661163
H       -1.1397200166   -1.9167097122   -0.2669656029
H       -2.3329488003    0.3259829399   -0.2863411069
H       -1.0075666458    2.4041231748   -0.4445715272
C        0.0595327322   -0.0423121142    1.5653787238
H       -0.3255175679   -0.8489977672    2.2647480673
13   
From optimize.out: Frame 10 / 57, Energy=    -286.7558150909
C        1.4652757300    0.2951728974   -0.3770559847
C        0.8060916847   -0.9611566074   -0.2777223444
C       -0.5964674375   -0.9982921859   -0.2920819803
C       -1.2528597914    0.2442876437   -0.2969611540
C       -0.4954480647    1.4292239739   -0.3801840163
N        0.8448272414    1.4678612151   -0.4670002744
H        2.5533202803    0.3316064774   -0.4133825034
H        1.3949785208   -1.8743948814   -0.2703778305
H       -1.1463457246   -1.9345160829   -0.2909072825
H       -2.3377171070    0.3091322576   -0.2911586637
H       -1.0043122502    2.3911127957   -0.4090572795
C        0.0740391098    0.0367497669    1.5106528311
H       -0.3053821915   -0.7367872701    2.2552364826
13   
From optimize.out: Frame 8 / 57, Energy=    -286.7429786092
C        1.4631922944    0.2741334721   -0.3483639091
C        0.8012524909   -0.9810650524   -0.2906740231
C       -0.6024530384   -1.0141034631   -0.3010610379
C       -1.2594094700    0.2264574359   -0.2934768641
C       -0.4946650390    1.4177056280   -0.3505998207
N        0.8455793499    1.4611834791   -0.4322482250
H        2.5503887546    0.3091356048   -0.3787685715
H        1.3849180928   -1.8972845473   -0.2929695644
H       -1.1526973344   -1.9493662636   -0.3001366249
H       -2.3440154071    0.2880662797   -0.2945286766
H       -1.0025719772    2.3797571755   -0.3739807553
C        0.0930893818    0.1166340760    1.4398322126
H       -0.2826080983   -0.6312538247    2.2169758600
13   
From optimize.out: Frame 5 / 57, Energy=    -286.7126973484
C        1.4649040373    0.2549710642   -0.3230611268
C        0.7963299472   -0.9989052661   -0.2969208298
C       -0.6053057278   -1.0260852960   -0.3047552559
C       -1.2652844064    0.2126894611   -0.2917457005
C       -0.4982807862    1.4101835912   -0.3268252014
N        0.8446337863    1.4517462274   -0.3969692015
H        2.5491238652    0.2837350452   -0.3426973397
H        1.3695915558   -1.9185894061   -0.2975551214
H       -1.1535441283   -1.9582245083   -0.2928515887
H       -2.3477754528    0.2650189666   -0.2926574098
H       -1.0052292775    2.3690802985   -0.3417977247
C        0.1118093824    0.1900715009    1.3569683222
H       -0.2609727953   -0.5356916786    2.1508681780
13   
From optimize.out: Frame 2 / 57, Energy=    -286.6605056957
C        1.4696833927    0.2413705303   -0.3054811117
C        0.7871670785   -1.0063412648   -0.2839504969
C       -0.6088428400   -1.0311947418   -0.3012726266
C       -1.2652116422    0.2030964310   -0.2874940351
C       -0.5045457378    1.4067154278   -0.3154521248
N        0.8387637979    1.4329175306   -0.3645112189
H        2.5491129164    0.2636545183   -0.3122134253
H        1.3481544535   -1.9287276321   -0.2709206033
H       -1.1548768976   -1.9568517815   -0.2699913681
H       -2.3442264585    0.2464102148   -0.2834408220
H       -1.0108861499    2.3601361054   -0.3231477833
C        0.1326048813    0.2397139469    1.2606981256
H       -0.2368967943   -0.4708992850    2.0571774904
13   
C5H5N+CH->C6H6N atoms 1-13 frame 55 charge +0.000 sz -1.000 sz^2 0.927
C        1.4714303085    0.2505392344   -0.2930838723
C        0.7887790663   -1.0051579684   -0.2473080969
C       -0.6093836797   -1.0384048082   -0.2710449437
C       -1.2620472557    0.2017731455   -0.2628178222
C       -0.4970319575    1.4113094946   -0.3183716666
N        0.8438976940    1.4420260042   -0.3939302356
H        2.5596257939    0.2660869594   -0.2999969491
H        1.3519102838   -1.9360309284   -0.2135292411
H       -1.1571372144   -1.9686925560   -0.2177090180
H       -2.3500728279    0.2407589859   -0.2489019641
H       -1.0155142845    2.3676842134   -0.3367428415
C        0.1379977999    0.2620406134    1.1549799478
H       -0.2624537265   -0.4939323897    1.9484567033
13   
C5H5N+CH->C6H6N atoms 1-13 frame 57 charge +0.000 sz -1.000 sz^2 0.847
C        1.4722762989    0.2740583014   -0.2962395525
C        0.7896972015   -1.0079168292   -0.2226784769
C       -0.6046475721   -1.0491773993   -0.2543246762
C       -1.2583828954    0.1978640694   -0.2351269234
C       -0.4821588580    1.4265773237   -0.3318040256
N        0.8545333960    1.4702460920   -0.4587440473
H        2.5639652300    0.2923011353   -0.3047456819
H        1.3595056191   -1.9374484867   -0.1682086473
H       -1.1515711771   -1.9830845676   -0.1871952066
H       -2.3490315359    0.2379646169   -0.2002928928
H       -1.0040167132    2.3850365460   -0.3626696190
C        0.1159691415    0.2402384759    1.1249253049
H       -0.3061381353   -0.5466592778    1.8971044445
13   
From optimize.out: Frame 2 / 75, Energy=    -286.6322621923
C        1.4739988172    0.3033008644   -0.3192882854
C        0.7909881252   -1.0076283470   -0.2163994067
C       -0.5932360416   -1.0550148251   -0.2494937801
C       -1.2501345628    0.1937064723   -0.2110080961
C       -0.4673565747    1.4468994829   -0.3554981984
N        0.8620519952    1.4993935719   -0.5233756022
H        2.5619237596    0.3338184486   -0.3324658956
H        1.3715570215   -1.9248685018   -0.1501146081
H       -1.1379592515   -1.9913338829   -0.1799699597
H       -2.3351008587    0.2406430578   -0.1535892004
H       -0.9818986329    2.4057597424   -0.3986090018
C        0.0639895952    0.1696128569    1.1727529502
H       -0.3588233917   -0.6142889404    1.9170590841
13   
From optimize.out: Frame 7 / 75, Energy=    -286.7449469041
C        1.4787134555    0.3281874297   -0.3458260049
C        0.7963907985   -0.9955208435   -0.2066275516
C       -0.5831106981   -1.0540273248   -0.2388059817
C       -1.2377205126    0.1947906429   -0.1877309437
C       -0.4571775353    1.4616847678   -0.3827189001
N        0.8639436026    1.5153830767   -0.5769687648
H        2.5639437352    0.3701990908   -0.3653139627
H        1.3897056297   -1.9001739419   -0.1261553721
H       -1.1260656930   -1.9917670940   -0.1648947987
H       -2.3179745628    0.2495306621   -0.1094597334
H       -0.9666256372    2.4207411961   -0.4362991724
C        0.0092421447    0.0904813069    1.2121967321
H       -0.4132647274   -0.6895089689    1.9286044540
13   
From optimize.out: Frame 10 / 75, Energy=    -286.7845989253
C        1.4839712944    0.3488022008   -0.3721429599
C        0.8070413460   -0.9761021832   -0.1965428977
C       -0.5726786177   -1.0483991433   -0.2292457691
C       -1.2237653612    0.2020895987   -0.1636084156
C       -0.4499656711    1.4717900181   -0.4109352225
N        0.8624604218    1.5230478377   -0.6311003835
H        2.5678523098    0.3979579570   -0.3949382806
H        1.4125888278   -1.8691452664   -0.0982846770
H       -1.1124362576   -1.9874137450   -0.1508514466
H       -2.3000662796    0.2636708549   -0.0621158826
H       -0.9597865800    2.4293155729   -0.4719698781
C       -0.0452909868    0.0119235183    1.2447352738
H       -0.4699244459   -0.7675372204    1.9370005393
13   
From optimize.out: Frame 13 / 75, Energy=    -286.8113790043
C        1.4895051666    0.3656451902   -0.3980081551
C        0.8206388043   -0.9528821324   -0.1846775518
C       -0.5609324074   -1.0431072788   -0.2199674020
C       -1.2064438559    0.2131948999   -0.1330353704
C       -0.4453809077    1.4801505449   -0.4405498551
N        0.8590234453    1.5264657171   -0.6859286433
H        2.5729505182    0.4182959952   -0.4187202555
H        1.4368145398   -1.8354578751   -0.0650125470
H       -1.0961140187   -1.9836215637   -0.1392710465
H       -2.2790677875    0.2794567052   -0.0050184637
H       -0.9597983484    2.4346333581   -0.5080252256
C       -0.1007573473   -0.0607193803    1.2634877749
H       -0.5304378014   -0.8420541802    1.9347267409
13   
From optimize.out: Frame 15 / 75, Energy=    -286.8250568421
C        1.4955875000    0.3795811612   -0.4228392287
C        0.8346758704   -0.9283030244   -0.1682947694
C       -0.5498401497   -1.0400867011   -0.2106005451
C       -1.1859588621    0.2254169771   -0.0940847386
C       -0.4426936007    1.4872586669   -0.4702739807
N        0.8541445339    1.5272203994   -0.7403172373
H        2.5788050408    0.4352997204   -0.4390031009
H        1.4603820016   -1.8008004600   -0.0250428161
H       -1.0804532961   -1.9822354839   -0.1338603126
H       -2.2549931555    0.2960501044    0.0600452087
H       -0.9630282279    2.4380462517   -0.5455818002
C       -0.1560840998   -0.1276563168    1.2680217249
H       -0.5905435549   -0.9097912949    1.9218315960
13   
From optimize.out: Frame 18 / 75, Energy=    -286.8411406832
C        1.5015234618    0.3906200107   -0.4465749386
C        0.8476024277   -0.9033487528   -0.1441639104
C       -0.5412978812   -1.0392503543   -0.2036369109
C       -1.1625479481    0.2388629357   -0.0464986060
C       -0.4421167140    1.4926915406   -0.4983672074
N        0.8466983224    1.5240616785   -0.7933141904
H        2.5844792119    0.4507770136   -0.4583637560
H        1.4819363888   -1.7657188164    0.0242306955
H       -1.0683766387   -1.9830635493   -0.1422573991
H       -2.2285610954    0.3159124022    0.1292096546
H       -0.9684602984    2.4394419853   -0.5853233006
C       -0.2075907000   -0.1908019955    1.2610543256
H       -0.6432885367   -0.9701840984    1.9040055439
13   
From optimize.out: Frame 23 / 75, Energy=    -286.8519731815
C        1.5063422692    0.3987361319   -0.4698953914
C        0.8569978760   -0.8782094064   -0.1071498734
C       -0.5377708522   -1.0386691234   -0.2023129783
C       -1.1375401170    0.2551706213    0.0050661427
C       -0.4443447066    1.4963726668   -0.5224645430
N        0.8359692637    1.5158367005   -0.8431627102
H        2.5890061136    0.4649262313   -0.4797187784
H        1.4979070625   -1.7307932916    0.0883990119
H       -1.0637733710   -1.9831872461   -0.1711181138
H       -2.2019665639    0.3414204963    0.1941512682
H       -0.9768642360    2.4383124514   -0.6264626101
C       -0.2466788313   -0.2535826677    1.2466442338
H       -0.6772839071   -1.0263335642    1.8880243420
13   
From optimize.out: Frame 26 / 75, Energy=    -286.8555684803
C        1.5095480149    0.4041762603   -0.4925705021
C        0.8591670486   -0.8523976350   -0.0535548410
C       -0.5414668057   -1.0359532741   -0.2077841720
C       -1.1148507254    0.2745565263    0.0497659403
C       -0.4489525981    1.4982918802   -0.5405883057
N        0.8243045706    1.5031327697   -0.8865567713
H        2.5920549826    0.4765868896   -0.5046577114
H        1.5034551902   -1.6962517272    0.1705395255
H       -1.0693885584   -1.9789080900   -0.2175935843
H       -2.1791039973    0.3706285648    0.2453048539
H       -0.9880661397    2.4343736715   -0.6644170207
C       -0.2636947494   -0.3169776962    1.2268527757
H       -0.6830062329   -1.0812581399    1.8752598131
13   
From optimize.out: Frame 58 / 75, Energy=    -286.8567487505
C        1.5117780608    0.4064961138   -0.5111904737
C        0.8530445097   -0.8241089891    0.0137869871
C       -0.5515908765   -1.0301245110   -0.2210516452
C       -1.0997051496    0.2942750951    0.0835904909
C       -0.4540911653    1.4966178715   -0.5531157619
N        0.8165719996    1.4866160557   -0.9192375520
H        2.5944657889    0.4829204496   -0.5323972021
H        1.4990593963   -1.6612387634    0.2612069103
H       -1.0819166405   -1.9695145154   -0.2767220670
H       -2.1637027991    0.3970361540    0.2858903120
H       -0.9991835552    2.4264739082   -0.6964392032
C       -0.2594271939   -0.3757883577    1.2014510397
H       -0.6653023752   -1.1296605114    1.8642281651
13   
From optimize.out: Frame 61 / 75, Energy=    -286.8577886704
C        1.5155993714    0.4052185524   -0.5170412844
C        0.8483922207   -0.7915082621    0.0864754172
C       -0.5618835223   -1.0191374099   -0.2411231016
C       -1.0972559349    0.3138628604    0.1179589964
C       -0.4589413371    1.4894751037   -0.5591686056
N        0.8173736205    1.4704505619   -0.9246802175
H        2.5984017118    0.4765301508   -0.5688920740
H        1.4919907602   -1.6331212855    0.3306499461
H       -1.0894910114   -1.9539279905   -0.3559057075
H       -2.1605566503    0.4124583805    0.3285153244
H       -1.0109945426    2.4093577741   -0.7346344527
C       -0.2494646995   -0.4274403250    1.1696948500
H       -0.6431699863   -1.1522181109    1.8681509092
13   
From optimize.out: Frame 63 / 75, Energy=    -286.8581568934
C        1.5205781768    0.4029698956   -0.5056387228
C        0.8579678541   -0.7691447088    0.1337461412
C       -0.5666011862   -1.0131386494   -0.2520313828
C       -1.1033568647    0.3310671240    0.1444570081
C       -0.4624261300    1.4852339011   -0.5491759052
N        0.8260224719    1.4742094169   -0.8796284868
H        2.6008502138    0.4479869354   -0.6184295033
H        1.4877466756   -1.6309344346    0.3452206158
H       -1.0847082342   -1.9406074225   -0.4425523541
H       -2.1679933050    0.4142067498    0.3525770806
H       -1.0289332335    2.3858132882   -0.7741561020
C       -0.2579779361   -0.4697729247    1.1322823025
H       -0.6211685024   -1.1178891711    1.9133293088
13   
From optimize.out: Frame 66 / 75, Energy=    -286.8583332050
C        1.5212455672    0.4039047782   -0.4880231319
C        0.8609876210   -0.7633236824    0.1420174628
C       -0.5780322734   -1.0228811672   -0.2540228072
C       -1.1139557245    0.3374762161    0.1437754246
C       -0.4634111697    1.4875076664   -0.5287556889
N        0.8393476734    1.4916664859   -0.8177409705
H        2.5969369921    0.4068699626   -0.6513708202
H        1.4811624209   -1.6364556640    0.3351293255
H       -1.0860302237   -1.9390452576   -0.5161778923
H       -2.1815571017    0.4078537353    0.3424456041
H       -1.0349670451    2.3755146139   -0.7922065515
C       -0.2882353034   -0.4952795639    1.1008251519
H       -0.5534914330   -1.0538081234    1.9841048935
13   
From optimize.out: Frame 69 / 75, Energy=    -286.8583875328
C        1.5113908718    0.3973158936   -0.4944983052
C        0.8593224535   -0.7710255925    0.1389186203
C       -0.5778323310   -1.0440777031   -0.2515909091
C       -1.1106634320    0.3265965871    0.1249915353
C       -0.4545373803    1.4926173279   -0.5105065388
N        0.8423597626    1.5047776834   -0.8103230835
H        2.5815223763    0.3938805635   -0.6908387485
H        1.4850162744   -1.6361722763    0.3486845546
H       -1.0815241668   -1.9495095706   -0.5553131974
H       -2.1802194220    0.3985308676    0.3123333893
H       -1.0277489607    2.3885501329   -0.7377759140
C       -0.3003434464   -0.5143698801    1.0967655471
H       -0.5467425993   -0.9871140334    2.0291530501
13   
From optimize.out: Frame 74 / 75, Energy=    -286.8584182611
C        1.5123357154    0.3941987978   -0.4750915619
C        0.8388563050   -0.7825604366    0.1106146023
C       -0.6022114377   -1.0569247497   -0.2534971818
C       -1.1154626821    0.3298929742    0.1300175655
C       -0.4505958578    1.4914184858   -0.5071587788
N        0.8486738506    1.5102560576   -0.7791462675
H        2.5879319871    0.3923993251   -0.6371001947
H        1.4625288803   -1.6475708789    0.3320010356
H       -1.1133758792   -1.9390917791   -0.6097483361
H       -2.1845538685    0.4121507001    0.3175073499
H       -1.0375792676    2.3665832375   -0.7774853011
C       -0.3166131046   -0.5338415252    1.0802536438
H       -0.4299346408   -0.9369102085    2.0688334248
13   
From optimize.out: Frame 1 / 3, Energy=    -286.8584534010
C        1.5182267448    0.4002258235   -0.4669613130
C        0.8437869664   -0.7930812169    0.1020567230
C       -0.6069274731   -1.0558318172   -0.2539020546
C       -1.1096507385    0.3286748280    0.1380415697
C       -0.4554754331    1.4937251054   -0.5067026253
N        0.8474759627    1.5085828168   -0.7761177211
H        2.5967795086    0.4079676031   -0.6115677519
H        1.4607672820   -1.6695891560    0.2914987144
H       -1.1147807891   -1.9371058307   -0.6202864484
H       -2.1734402891    0.4132795448    0.3538062628
H       -1.0485263987    2.3550758655   -0.8073378949
C       -0.3005747809   -0.5432430470    1.0764349586
H       -0.4576605621   -0.9086805194    2.0810375807
13   
From optimize.out: Frame 2 / 3, Energy=    -286.8584558379
C        1.5164092504    0.3970059750   -0.4801428518
C        0.8530348703   -0.7814248652    0.1267558406
C       -0.5920261475   -1.0630994478   -0.2532948765
C       -1.1147919436    0.3153463506    0.1138800816
C       -0.4545331516    1.4960737079   -0.4935870867
N        0.8463556059    1.5089947613   -0.7766774000
H        2.5822481034    0.3744660638   -0.6987457291
H        1.4770668176   -1.6490779175    0.3347268910
H       -1.0842922553   -1.9529504614   -0.6202086308
H       -2.1825301154    0.3920699476    0.3124775618
H       -1.0320484011    2.3892807785   -0.7240481721
C       -0.3068346106   -0.5381252990    1.0780556031
H       -0.5080580226   -0.8885595938    2.0808087689
