13   
From optimize.out: Frame 56 / 57, Energy=    -286.8549487881
C        1.4686732685    0.4434648827   -0.3530738584
C        0.8844898150   -0.7852997800    0.2158355540
C       -0.7449175472   -0.8064664611    0.1739773918
C       -1.3117588051    0.4547650255   -0.3303380734
C       -0.5481144770    1.5423396026   -0.5757289614
N        0.8460300516    1.5355555592   -0.6348741906
H        2.5303145794    0.3995219587   -0.6079325517
H        1.4411642486   -1.6994013932    0.0000858207
H       -1.2584586499   -1.7272652578   -0.1086158969
H       -2.3826894973    0.4875523101   -0.5153848406
H       -1.0043020908    2.4797194493   -0.8832408489
C        0.0350901728   -0.7972998302    1.4092860838
H        0.0444789317   -1.5271860652    2.2100043717
13   
From optimize.out: Frame 53 / 57, Energy=    -286.8549356414
C        1.4627035575    0.4460703847   -0.3463120160
C        0.8859393594   -0.7872228319    0.2148764641
C       -0.7491640880   -0.7858312482    0.2021829253
C       -1.3153111302    0.4615310567   -0.3301520444
C       -0.5512824666    1.5466501163   -0.5878305035
N        0.8436986788    1.5431347654   -0.6208878745
H        2.5285238916    0.4059828887   -0.5853892467
H        1.4394847014   -1.6998169802   -0.0113481823
H       -1.2808089379   -1.7052753354   -0.0498153158
H       -2.3804878523    0.4831796401   -0.5457306854
H       -1.0044501275    2.4755921105   -0.9243700528
C        0.0548010079   -0.7935190984    1.4244492475
H        0.0663534059   -1.5904754683    2.1603272847
13   
From optimize.out: Frame 51 / 57, Energy=    -286.8548783919
C        1.4655585588    0.4539966208   -0.3533176317
C        0.8866553052   -0.7552295624    0.2530566821
C       -0.7483221378   -0.7944944896    0.1937668584
C       -1.3089690628    0.4641907089   -0.3206117064
C       -0.5461357958    1.5427559490   -0.6065390516
N        0.8453673350    1.5341029224   -0.6808161988
H        2.5263034243    0.3903317867   -0.6076903164
H        1.4537591265   -1.6657894493    0.0490154527
H       -1.2591096340   -1.7145038315   -0.0961684390
H       -2.3831829179    0.5077132563   -0.4837786129
H       -1.0050648948    2.4763835222   -0.9217488119
C        0.0212778430   -0.8013418122    1.4421805077
H        0.0518628503   -1.6381156212    2.1326512677
13   
From optimize.out: Frame 48 / 57, Energy=    -286.8547766722
C        1.4643058351    0.4533777579   -0.3601596492
C        0.9072764951   -0.7658582439    0.2624349268
C       -0.7298722071   -0.7856572701    0.1822748770
C       -1.3189138994    0.4664679579   -0.3239618699
C       -0.5577466557    1.5407415123   -0.6259927034
N        0.8396969548    1.5203666531   -0.7136300179
H        2.5300533728    0.3952512113   -0.5985784191
H        1.4788229623   -1.6730026228    0.0651115676
H       -1.2376747446   -1.7091626359   -0.1056281062
H       -2.4001397391    0.5100760326   -0.4276960397
H       -0.9977820468    2.4917985983   -0.9138936228
C        0.0165283096   -0.7991300681    1.4394574091
H        0.0054453631   -1.6452688827    2.1202616477
13   
From optimize.out: Frame 45 / 57, Energy=    -286.8546416099
C        1.4679130446    0.4449804249   -0.3879857596
C        0.9097639411   -0.7676756488    0.2568647834
C       -0.6990838283   -0.7934455233    0.1650499192
C       -1.3048855989    0.4572355781   -0.3215401699
C       -0.5604896164    1.5342225921   -0.6279749469
N        0.8285503246    1.5019286982   -0.7403109928
H        2.5355272352    0.4166913349   -0.6176039404
H        1.5094504798   -1.6644157212    0.0959331695
H       -1.2235468099   -1.7166855087   -0.0849335895
H       -2.3895943775    0.5057510577   -0.3757821964
H       -0.9930474418    2.4983178606   -0.8795333529
C        0.0353362053   -0.7734952873    1.4427925321
H       -0.1158935579   -1.6434098573    2.0750245443
13   
From optimize.out: Frame 43 / 57, Energy=    -286.8545055827
C        1.4728279701    0.4327493714   -0.4142697039
C        0.8846623675   -0.7455472757    0.2483635878
C       -0.6749357474   -0.8137707935    0.1345922804
C       -1.2929293408    0.4383872955   -0.3237200656
C       -0.5558457510    1.5228588603   -0.6178295973
N        0.8221629104    1.4803889508   -0.7510061855
H        2.5412913849    0.4172977993   -0.6299163261
H        1.5239348768   -1.6260684909    0.1219884574
H       -1.2205888702   -1.7357216438   -0.0494061623
H       -2.3775758509    0.4995050299   -0.3474145109
H       -0.9821465115    2.4966276496   -0.8364197067
C        0.0708837938   -0.7379668060    1.4596571150
H       -0.2117412317   -1.6287399468    2.0053808176
13   
From optimize.out: Frame 40 / 57, Energy=    -286.8543074834
C        1.4733421491    0.4164638222   -0.4372477961
C        0.8395672424   -0.7256853433    0.2438027322
C       -0.6531141561   -0.8294650839    0.0781744336
C       -1.2929980852    0.4178912860   -0.3407383624
C       -0.5518194286    1.5198704017   -0.6032518009
N        0.8380549135    1.4772353960   -0.7560254619
H        2.5445538510    0.4029113013   -0.6333196363
H        1.4963159499   -1.6026509631    0.1829425326
H       -1.2148126087   -1.7505233054   -0.0168910341
H       -2.3758111499    0.4922673996   -0.3486358714
H       -0.9891632272    2.4947858748   -0.7844313955
C        0.1239394071   -0.6935720820    1.4977791199
H       -0.2380548574   -1.6195287039    1.9178425402
13   
From optimize.out: Frame 37 / 57, Energy=    -286.8541201534
C        1.4708632122    0.4087903291   -0.4641388514
C        0.8169822425   -0.7446600045    0.2030172487
C       -0.6321750587   -0.8404307626    0.0059226356
C       -1.2885831788    0.3984412040   -0.3510724104
C       -0.5419704578    1.5240093399   -0.5902426020
N        0.8543871184    1.5022567382   -0.7606254438
H        2.5483802348    0.4049516930   -0.6290692590
H        1.4466425985   -1.6360284175    0.2450630122
H       -1.1932526944   -1.7656895044   -0.0133869032
H       -2.3718489673    0.4688443933   -0.3376319205
H       -1.0039815123    2.4964386058   -0.7248858539
C        0.1456265177   -0.6295860807    1.5383404845
H       -0.2510700550   -1.5873375336    1.8787098631
13   
From optimize.out: Frame 34 / 57, Energy=    -286.8534554834
C        1.4688661799    0.4023043921   -0.4779461098
C        0.8133230338   -0.7782856315    0.1260600433
C       -0.6169468278   -0.8535783948   -0.0555125979
C       -1.2774975189    0.3810168644   -0.3510675121
C       -0.5316440839    1.5190337648   -0.5747904907
N        0.8561244433    1.5180933666   -0.7439788560
H        2.5515992297    0.4097782455   -0.6085168736
H        1.4189708626   -1.6766409233    0.2294547032
H       -1.1745774171   -1.7813999846   -0.0288107655
H       -2.3612932507    0.4463042861   -0.3232733178
H       -1.0119325422    2.4877145654   -0.6785830182
C        0.1333802324   -0.5488927328    1.5797472525
H       -0.2683723411   -1.5254478179    1.9072175424
13   
From optimize.out: Frame 32 / 57, Energy=    -286.8516107029
C        1.4702850809    0.3965155752   -0.4805197310
C        0.8153220729   -0.8073757979    0.0478768346
C       -0.6061351423   -0.8692164349   -0.0963327403
C       -1.2675218818    0.3668795469   -0.3482995970
C       -0.5242999621    1.5116781940   -0.5585390559
N        0.8544569854    1.5235192932   -0.7160800106
H        2.5556285354    0.4107998810   -0.5868713871
H        1.4098680249   -1.7086795262    0.1692643994
H       -1.1592942373   -1.7995648499   -0.0470925867
H       -2.3516872983    0.4271228878   -0.3128142280
H       -1.0148702291    2.4776147480   -0.6453783646
C        0.1091689639   -0.4752416556    1.6099852960
H       -0.2909209124   -1.4540518617    1.9648011712
13   
From optimize.out: Frame 29 / 57, Energy=    -286.8445139966
C        1.4721623340    0.3887595277   -0.4778954940
C        0.8176478687   -0.8319442166   -0.0204376228
C       -0.5984671066   -0.8862810590   -0.1313888557
C       -1.2596034348    0.3529592910   -0.3437236243
C       -0.5186301149    1.5029736767   -0.5395315959
N        0.8518365225    1.5222324613   -0.6841650196
H        2.5587687359    0.4077208077   -0.5677074147
H        1.4076782964   -1.7356460127    0.0991570118
H       -1.1480184715   -1.8189587601   -0.0741547333
H       -2.3440277380    0.4096524372   -0.3047644800
H       -1.0155049539    2.4671077958   -0.6140032111
C        0.0878343640   -0.4053872182    1.6285838622
H       -0.3116763017   -1.3731887308    2.0300311775
13   
From optimize.out: Frame 26 / 57, Energy=    -286.8310460273
C        1.4735103767    0.3787893767   -0.4720156672
C        0.8191314288   -0.8543675834   -0.0811994728
C       -0.5928312920   -0.9039551801   -0.1652278479
C       -1.2533960902    0.3379304858   -0.3375173470
C       -0.5137846282    1.4932744243   -0.5184910536
N        0.8493441176    1.5173527994   -0.6504726443
H        2.5608423899    0.4016817072   -0.5483980351
H        1.4073459050   -1.7602878592    0.0284353804
H       -1.1402288007   -1.8383915009   -0.1080200577
H       -2.3379745753    0.3926218176   -0.2974846005
H       -1.0151687978    2.4560586874   -0.5822936807
C        0.0712615903   -0.3362860627    1.6382422813
H       -0.3280516241   -1.2844211121    2.0944427450
13   
From optimize.out: Frame 24 / 57, Energy=    -286.8200209778
C        1.4741342284    0.3666189529   -0.4626655610
C        0.8194859596   -0.8754859606   -0.1349232787
C       -0.5890837556   -0.9220132289   -0.1976505924
C       -1.2489419644    0.3215769613   -0.3297832719
C       -0.5095147948    1.4827004887   -0.4956611762
N        0.8473441178    1.5099076646   -0.6155890238
H        2.5618640124    0.3929587851   -0.5275607861
H        1.4073365636   -1.7834639055   -0.0410347198
H       -1.1355936982   -1.8576792214   -0.1467825170
H       -2.3336128995    0.3757296032   -0.2909367192
H       -1.0141853020    2.4444660659   -0.5501176639
C        0.0595823967   -0.2673763441    1.6383259638
H       -0.3388148642   -1.1879398611    2.1543793463
13   
From optimize.out: Frame 21 / 57, Energy=    -286.8063839670
C        1.4739192127    0.3525763373   -0.4496560767
C        0.8186539118   -0.8960960925   -0.1823165949
C       -0.5871312217   -0.9403862126   -0.2278537458
C       -1.2461711775    0.3040842718   -0.3210584974
C       -0.5055747381    1.4712433656   -0.4710779958
N        0.8458399649    1.5007686448   -0.5800396395
H        2.5618834330    0.3819044527   -0.5045694773
H        1.4068913754   -1.8058445570   -0.1081798866
H       -1.1336478463   -1.8768661672   -0.1878249640
H       -2.3309268051    0.3590716832   -0.2858138744
H       -1.0127165270    2.4322844742   -0.5172889048
C        0.0524979037   -0.1978748554    1.6288804389
H       -0.3435174858   -1.0848653449    2.2067992183
13   
From optimize.out: Frame 18 / 57, Energy=    -286.7938030433
C        1.4724406453    0.3363976189   -0.4317357104
C        0.8162336538   -0.9167365632   -0.2222651431
C       -0.5874564327   -0.9590880418   -0.2543427096
C       -1.2456029836    0.2854697245   -0.3120146013
C       -0.5019364048    1.4585457604   -0.4441590836
N        0.8448595211    1.4901128434   -0.5438196178
H        2.5605486713    0.3682380212   -0.4785456495
H        1.4054303500   -1.8277106388   -0.1709333304
H       -1.1347812661   -1.8958722466   -0.2284196270
H       -2.3304331401    0.3430754920   -0.2837132793
H       -1.0106863683    2.4192746983   -0.4834816069
C        0.0515094347   -0.1263625977    1.6073996475
H       -0.3401256805   -0.9753440704    2.2460307115
13   
From optimize.out: Frame 16 / 57, Energy=    -286.7845755134
C        1.4694474561    0.3179873305   -0.4083089533
C        0.8120403347   -0.9377668963   -0.2537874023
C       -0.5903774788   -0.9779791677   -0.2756286063
C       -1.2475690713    0.2660400494   -0.3037787379
C       -0.4985738019    1.4446502921   -0.4147438610
N        0.8444284312    1.4787191634   -0.5071871970
H        2.5576426299    0.3522975483   -0.4493503334
H        1.4021546668   -1.8494880180   -0.2256508574
H       -1.1389669083   -1.9146298531   -0.2640244614
H       -2.3324275900    0.3278572933   -0.2857759324
H       -1.0079549949    2.4056399606   -0.4486505409
C        0.0579391693   -0.0513656650    1.5714355097
H       -0.3277828428   -0.8619620374    2.2654513735
13   
From optimize.out: Frame 13 / 57, Energy=    -286.7707047735
C        1.4655728300    0.2976677443   -0.3804622403
C        0.8066718418   -0.9588067336   -0.2761295585
C       -0.5957123286   -0.9963910447   -0.2909498049
C       -1.2520923676    0.2464391065   -0.2973965745
C       -0.4955994875    1.4306332004   -0.3837263903
N        0.8447266008    1.4686314180   -0.4710855791
H        2.5536920693    0.3341929390   -0.4174161743
H        1.3960982380   -1.8717068078   -0.2674979574
H       -1.1455118101   -1.9327049084   -0.2895845079
H       -2.3369571778    0.3115681896   -0.2906875925
H       -1.0045800395    2.3924583044   -0.4132017937
C        0.0717880585    0.0273143913    1.5187988962
H       -0.3080964272   -0.7492957989    2.2593392773
13   
From optimize.out: Frame 10 / 57, Energy=    -286.7558150909
C        1.4630472883    0.2764599408   -0.3515068762
C        0.8017401338   -0.9787821720   -0.2896692627
C       -0.6021312399   -1.0125519672   -0.3005740238
C       -1.2586159630    0.2281502891   -0.2936952200
C       -0.4943122964    1.4186538681   -0.3536139334
N        0.8455821105    1.4620841977   -0.4363578613
H        2.5505316233    0.3122063516   -0.3831273776
H        1.3865799221   -1.8945571623   -0.2919787308
H       -1.1526006196   -1.9481010568   -0.3008289428
H       -2.3434170653    0.2908612013   -0.2946920006
H       -1.0023036582    2.3810206151   -0.3779707573
C        0.0909234424    0.1075211531    1.4495521031
H       -0.2850236781   -0.6429652585    2.2244628836
13   
From optimize.out: Frame 8 / 57, Energy=    -286.7429786092
C        1.4642557403    0.2570716039   -0.3253140017
C        0.7976762128   -0.9978072520   -0.2980427395
C       -0.6048130457   -1.0254818306   -0.3046327041
C       -1.2652288958    0.2140423816   -0.2918754846
C       -0.4972519843    1.4107514196   -0.3284949058
N        0.8455591047    1.4545777845   -0.4021089545
H        2.5493409837    0.2866153467   -0.3468019374
H        1.3727305607   -1.9172866566   -0.3002361452
H       -1.1534066225   -1.9586450432   -0.2950593005
H       -2.3484035289    0.2675688703   -0.2933308896
H       -1.0045397761    2.3704913556   -0.3447188592
C        0.1089739585    0.1834664743    1.3685484322
H       -0.2648927075   -0.5453644541    2.1620674899
13   
From optimize.out: Frame 5 / 57, Energy=    -286.7126973484
C        1.4694280741    0.2403127841   -0.3073398003
C        0.7869352481   -1.0065675811   -0.2890917624
C       -0.6087438305   -1.0302964828   -0.3056104634
C       -1.2656717786    0.2032483227   -0.2908400228
C       -0.5054601155    1.4062210921   -0.3151734367
N        0.8381766006    1.4319866589   -0.3611022588
H        2.5476087389    0.2636353222   -0.3140540619
H        1.3476865129   -1.9276804350   -0.2788460262
H       -1.1545036908   -1.9552898725   -0.2774454251
H       -2.3433925240    0.2472248715   -0.2879576393
H       -1.0100408530    2.3592334619   -0.3214130554
C        0.1315959334    0.2361636213    1.2761583786
H       -0.2336183155   -0.4681917632    2.0727155738
13   
From optimize.out: Frame 2 / 57, Energy=    -286.6605056957
C        1.4712477962    0.2478516153   -0.2940924454
C        0.7885875633   -1.0049545658   -0.2524486314
C       -0.6094494970   -1.0366986073   -0.2746935761
C       -1.2623922674    0.2021657511   -0.2669923016
C       -0.4989431085    1.4097443512   -0.3171597187
N        0.8423617082    1.4386212229   -0.3853988005
H        2.5583294013    0.2637721378   -0.3009353681
H        1.3510216471   -1.9351440805   -0.2223594838
H       -1.1571636325   -1.9664220024   -0.2243184292
H       -2.3493361913    0.2414186026   -0.2557651124
H       -1.0160655028    2.3656668360   -0.3337769104
C        0.1387869666    0.2614677117    1.1659691499
H       -0.2569848833   -0.4874889725    1.9619716277
13   
C5H5N+CH->C6H6N atoms 1-13 frame 55 charge +0.000 sz -1.000 sz^2 0.927
C        1.4722508508    0.2626222819   -0.2885495105
C        0.7896400290   -1.0060724293   -0.2241971872
C       -0.6090877775   -1.0460755779   -0.2546413548
C       -1.2604961457    0.2000080620   -0.2440501208
C       -0.4884397700    1.4183460952   -0.3238203644
N        0.8508032076    1.4573332826   -0.4322860192
H        2.5654541395    0.2764939774   -0.2957779875
H        1.3559054329   -1.9400180358   -0.1738300731
H       -1.1570184435   -1.9789005530   -0.1879943052
H       -2.3533846128    0.2377934688   -0.2180464952
H       -1.0130361072    2.3767539759   -0.3500771292
C        0.1344498496    0.2646162757    1.1055744904
H       -0.2870406526   -0.5229008236    1.8876960565
13   
C5H5N+CH->C6H6N atoms 1-13 frame 57 charge +0.000 sz -1.000 sz^2 0.847
C        1.4723186291    0.2930808826   -0.3090311053
C        0.7897923017   -1.0109847889   -0.2201522666
C       -0.5972617706   -1.0543369434   -0.2537979156
C       -1.2548677322    0.1942977698   -0.2202841499
C       -0.4717112405    1.4402690817   -0.3450839822
N        0.8607381609    1.4917251534   -0.5027541145
H        2.5614885901    0.3185946322   -0.3196624715
H        1.3654941393   -1.9331743198   -0.1588580137
H       -1.1425102389   -1.9900442231   -0.1858659925
H       -2.3417906635    0.2382493033   -0.1707616960
H       -0.9890139270    2.3988137052   -0.3836158635
C        0.0852284831    0.1996886432    1.1571132914
H       -0.3379047316   -0.5861788961    1.9127542800
13   
From optimize.out: Frame 2 / 75, Energy=    -286.6322621923
C        1.4766725584    0.3195642740   -0.3356108899
C        0.7928910804   -1.0022871251   -0.2104273513
C       -0.5868297602   -1.0560935615   -0.2426444608
C       -1.2426025072    0.1927655202   -0.1962467917
C       -0.4604268448    1.4574506689   -0.3720706999
N        0.8641427450    1.5115965908   -0.5561912868
H        2.5626162599    0.3580446329   -0.3528404260
H        1.3812050951   -1.9116511671   -0.1362009251
H       -1.1307171082   -1.9933861630   -0.1705873992
H       -2.3244551417    0.2444523219   -0.1262620158
H       -0.9705758199    2.4168132110   -0.4224680998
C        0.0301914204    0.1217522206    1.1976408788
H       -0.3921119770   -0.6590214236    1.9239094674
13   
From optimize.out: Frame 5 / 75, Energy=    -286.7079024501
C        1.4819402445    0.3418211906   -0.3619767554
C        0.8019240768   -0.9848229193   -0.2006198251
C       -0.5772306229   -1.0507604722   -0.2327371007
C       -1.2300017668    0.1979924914   -0.1742668430
C       -0.4520401691    1.4683791492   -0.3995543861
N        0.8636287458    1.5213697530   -0.6098192872
H        2.5660425587    0.3894160665   -0.3850354223
H        1.4031455190   -1.8820277143   -0.1102727100
H       -1.1187115079   -1.9892072423   -0.1558944332
H       -2.3077283528    0.2575598430   -0.0828942497
H       -0.9603801455    2.4269515919   -0.4581669833
C       -0.0238800006    0.0410399914    1.2352104676
H       -0.4467085793   -0.7377117290    1.9360275283
13   
From optimize.out: Frame 7 / 75, Energy=    -286.7449469041
C        1.4871702056    0.3597973177   -0.3881547695
C        0.8151010639   -0.9623669917   -0.1901217219
C       -0.5655091926   -1.0446800416   -0.2237469089
C       -1.2139429993    0.2085425578   -0.1468213529
C       -0.4466983290    1.4771621492   -0.4288600819
N        0.8606203071    1.5256908272   -0.6646181890
H        2.5707026745    0.4114114662   -0.4105353191
H        1.4274620742   -1.8488553633   -0.0794034806
H       -1.1025527152   -1.9845889801   -0.1429087240
H       -2.2879984860    0.2732957214   -0.0293898775
H       -0.9588517121    2.4330388518   -0.4937094886
C       -0.0790133693   -0.0339350347    1.2597368790
H       -0.5064895218   -0.8145124800    1.9385330351
13   
From optimize.out: Frame 10 / 75, Energy=    -286.7845989253
C        1.4931678828    0.3748184042   -0.4134645822
C        0.8293255325   -0.9380037907   -0.1761376018
C       -0.5537530731   -1.0406401782   -0.2140387116
C       -1.1946803902    0.2204927558   -0.1114101093
C       -0.4433143462    1.4848382657   -0.4588869156
N        0.8565185420    1.5276812413   -0.7193571013
H        2.5764765786    0.4290953515   -0.4315594845
H        1.4514852033   -1.8144420224   -0.0424383347
H       -1.0860140136   -1.9821040345   -0.1335648355
H       -2.2650587254    0.2891210787    0.0332115416
H       -0.9612832811    2.4371345664   -0.5304814814
C       -0.1348658484   -0.1027344101    1.2693715851
H       -0.5680040611   -0.8852572276    1.9287560309
13   
From optimize.out: Frame 13 / 75, Energy=    -286.8113790043
C        1.4993681940    0.3870230517   -0.4374872764
C        0.8430358663   -0.9131454088   -0.1560402079
C       -0.5437261391   -1.0392218836   -0.2052283504
C       -1.1723313232    0.2331111584   -0.0670135465
C       -0.4417236751    1.4910405858   -0.4880664674
N        0.8504351049    1.5265003260   -0.7730678134
H        2.5824433035    0.4449941543   -0.4506338807
H        1.4742834032   -1.7794852823    0.0021379834
H       -1.0717645785   -1.9824408759   -0.1343220009
H       -2.2392655281    0.3068768273    0.1019732788
H       -0.9657547377    2.4394707757   -0.5691763102
C       -0.1892379854   -0.1665972281    1.2659125450
H       -0.6257619048   -0.9481262005    1.9110120465
13   
From optimize.out: Frame 15 / 75, Energy=    -286.8250568421
C        1.5048685069    0.3962026071   -0.4606792834
C        0.8546898782   -0.8881440266   -0.1257315138
C       -0.5375291465   -1.0392945418   -0.2011669454
C       -1.1473638343    0.2477898797   -0.0146587567
C       -0.4427267230    1.4952538757   -0.5143542882
N        0.8408987155    1.5202768190   -0.8247372206
H        2.5876390075    0.4597521977   -0.4703607717
H        1.4938140693   -1.7443528174    0.0585192973
H       -1.0631184470   -1.9840299587   -0.1545733932
H       -2.2119474707    0.3299359060    0.1714813882
H       -0.9726594159    2.4393973017   -0.6103839506
C       -0.2360747051   -0.2283685751    1.2535142123
H       -0.6704904348   -1.0044186674    1.8931312259
13   
From optimize.out: Frame 18 / 75, Energy=    -286.8411406832
C        1.5085890887    0.4025986085   -0.4839457783
C        0.8605165265   -0.8630636142   -0.0788212952
C       -0.5381393436   -1.0377156439   -0.2040601590
C       -1.1225634014    0.2664229063    0.0351376725
C       -0.4468113980    1.4980783161   -0.5348290050
N        0.8284540843    1.5090675324   -0.8712532291
H        2.5910903308    0.4728142871   -0.4939854964
H        1.5041470216   -1.7101211616    0.1339520315
H       -1.0647718331   -1.9819024914   -0.1963413126
H       -2.1867502056    0.3589292904    0.2287125584
H       -0.9832746806    2.4366585466   -0.6509752769
C       -0.2628453167   -0.2920227288    1.2361706310
H       -0.6876408729   -1.0597438474    1.8802386591
13   
From optimize.out: Frame 21 / 75, Energy=    -286.8487450435
C        1.5109731753    0.4065209733   -0.5053886045
C        0.8571614487   -0.8365458098   -0.0160037257
C       -0.5464120944   -1.0333340323   -0.2133188166
C       -1.1033881124    0.2866447482    0.0715065364
C       -0.4521348591    1.4986092801   -0.5491478039
N        0.8181375451    1.4943124991   -0.9093009630
H        2.5934886523    0.4821937482   -0.5205188044
H        1.5024269873   -1.6756389129    0.2249160202
H       -1.0762499559   -1.9744577974   -0.2491788041
H       -2.1677401690    0.3880160778    0.2699643964
H       -0.9951872272    2.4309778800   -0.6843941995
C       -0.2649571801   -0.3540658784    1.2130045382
H       -0.6761182107   -1.1132327761    1.8678602304
13   
From optimize.out: Frame 23 / 75, Energy=    -286.8519731815
C        1.5129525376    0.4064598391   -0.5196564738
C        0.8470371343   -0.8059613676    0.0572571464
C       -0.5591476774   -1.0254412258   -0.2323352722
C       -1.0943310258    0.3054091823    0.1012232155
C       -0.4569457778    1.4937120382   -0.5589057464
N        0.8142875792    1.4753855214   -0.9337368730
H        2.5958916120    0.4839808413   -0.5497299811
H        1.4941454582   -1.6402262823    0.3141620307
H       -1.0901853814   -1.9623013528   -0.3169127815
H       -2.1578115298    0.4101981134    0.3091291681
H       -1.0050149369    2.4199017805   -0.7140150912
C       -0.2513579213   -0.4074854723    1.1845923486
H       -0.6495200709   -1.1536316154    1.8589283101
13   
From optimize.out: Frame 26 / 75, Energy=    -286.8555684803
C        1.5190915899    0.4035808052   -0.5135908174
C        0.8501801145   -0.7724389114    0.1250258487
C       -0.5654931816   -1.0108201886   -0.2527177172
C       -1.1011150446    0.3250165985    0.1400400971
C       -0.4615742675    1.4838849148   -0.5595154205
N        0.8214453271    1.4639394027   -0.9127309143
H        2.6017135240    0.4666997493   -0.5941744376
H        1.4891478630   -1.6237469904    0.3524040144
H       -1.0885748633   -1.9428802207   -0.4073527673
H       -2.1641785478    0.4154405650    0.3540933163
H       -1.0188840027    2.3954460681   -0.7618395288
C       -0.2469667928   -0.4537686518    1.1500391693
H       -0.6347917184   -1.1503531405    1.8803191574
13   
From optimize.out: Frame 58 / 75, Energy=    -286.8567487505
C        1.5221972653    0.4023045347   -0.4969778465
C        0.8664497262   -0.7655568892    0.1432436861
C       -0.5678079489   -1.0156637580   -0.2512838745
C       -1.1057985016    0.3376569416    0.1492676048
C       -0.4633539203    1.4867031245   -0.5379148139
N        0.8310075841    1.4853948124   -0.8435755918
H        2.5999099555    0.4276062214   -0.6448464581
H        1.4862205984   -1.6387625060    0.3373969505
H       -1.0804969668   -1.9381320465   -0.4808893311
H       -2.1721480771    0.4128629630    0.3509257005
H       -1.0398781668    2.3753219247   -0.7875704691
C       -0.2699705187   -0.4872036816    1.1129427404
H       -0.6063310294   -1.0825316410    1.9492817028
13   
From optimize.out: Frame 61 / 75, Energy=    -286.8577886704
C        1.5207297390    0.4047721234   -0.4831696031
C        0.8580271152   -0.7621132659    0.1413528398
C       -0.5835739414   -1.0267930622   -0.2555073313
C       -1.1183770064    0.3373782614    0.1407986178
C       -0.4634421994    1.4879437348   -0.5237913679
N        0.8438680703    1.4950657845   -0.8037383935
H        2.5953256215    0.3956307399   -0.6549070780
H        1.4784208472   -1.6352053367    0.3339002541
H       -1.0890292945   -1.9395402256   -0.5353045824
H       -2.1866568704    0.4051386927    0.3378493222
H       -1.0323051768    2.3756190531   -0.7947193463
C       -0.2981349668   -0.4996567584    1.0942573194
H       -0.5248519376   -1.0382397408    2.0029793490
13   
From optimize.out: Frame 63 / 75, Energy=    -286.8581568934
C        1.5113374687    0.3977119070   -0.4967459613
C        0.8618579167   -0.7697936014    0.1420010737
C       -0.5749817556   -1.0425463814   -0.2515189319
C       -1.1100981366    0.3261946781    0.1245657353
C       -0.4550204585    1.4927041761   -0.5109534193
N        0.8416074880    1.5041204824   -0.8139395353
H        2.5809012429    0.3944414148   -0.6964601625
H        1.4877810803   -1.6350678044    0.3499696004
H       -1.0779095790   -1.9508774439   -0.5485225367
H       -2.1795740347    0.3973607151    0.3122958123
H       -1.0267838289    2.3907693276   -0.7337029707
C       -0.2981062547   -0.5121792523    1.0985864991
H       -0.5610111487   -0.9928382178    2.0244247968
13   
From optimize.out: Frame 66 / 75, Energy=    -286.8583332050
C        1.5118073581    0.3942274199   -0.4769690328
C        0.8395485991   -0.7806337825    0.1148788375
C       -0.6000637178   -1.0560203460   -0.2521522530
C       -1.1150721206    0.3297310400    0.1283123115
C       -0.4507698965    1.4919400067   -0.5070213570
N        0.8482266853    1.5099031365   -0.7821186946
H        2.5863665406    0.3895065335   -0.6469978357
H        1.4634537966   -1.6447859557    0.3386625951
H       -1.1097140185   -1.9388416476   -0.6082729625
H       -2.1852527408    0.4076567838    0.3126264486
H       -1.0352759390    2.3712428283   -0.7695404403
C       -0.3177911074   -0.5314543941    1.0825641025
H       -0.4354634392   -0.9424716228    2.0660282809
13   
From optimize.out: Frame 69 / 75, Energy=    -286.8583875328
C        1.5150533081    0.3940515806   -0.4654348349
C        0.8352955070   -0.7924701361    0.0886816106
C       -0.6132581838   -1.0615765288   -0.2604147907
C       -1.1174715260    0.3307258788    0.1387884985
C       -0.4497006940    1.4887360556   -0.5078656045
N        0.8509738345    1.5120712988   -0.7638576593
H        2.5959838239    0.4072783296   -0.5861919143
H        1.4577715955   -1.6618950647    0.2977374632
H       -1.1322105723   -1.9403783250   -0.6173368847
H       -2.1809592360    0.4352650508    0.3426121495
H       -1.0494263835    2.3426167436   -0.8183495029
C       -0.3105540751   -0.5461196769    1.0683698545
H       -0.4014973983   -0.9083052064    2.0832616150
13   
From optimize.out: Frame 71 / 75, Energy=    -286.8584021156
C        1.5192583908    0.4022329955   -0.4674575526
C        0.8465474375   -0.7932798719    0.1064048108
C       -0.6048694354   -1.0539642808   -0.2517848426
C       -1.1071082947    0.3280080561    0.1377987521
C       -0.4573527311    1.4953469853   -0.5063245548
N        0.8463388468    1.5074487534   -0.7801033194
H        2.5970381761    0.4081916776   -0.6198171308
H        1.4617411436   -1.6720904124    0.2894705724
H       -1.1091145767   -1.9360419822   -0.6212453160
H       -2.1709959701    0.4061323219    0.3574453340
H       -1.0482338244    2.3591261758   -0.8037581540
C       -0.2973306327   -0.5423078893    1.0790568267
H       -0.4759185295   -0.9088025291    2.0803145740
13   
From optimize.out: Frame 74 / 75, Energy=    -286.8584182611
C        1.5167238018    0.3971141064   -0.4795135170
C        0.8528758001   -0.7816226035    0.1261445954
C       -0.5925401501   -1.0629742414   -0.2531984901
C       -1.1146988188    0.3149714432    0.1132696753
C       -0.4546603066    1.4960375634   -0.4943343640
N        0.8466819037    1.5095803830   -0.7747615121
H        2.5822989295    0.3740000018   -0.6992134275
H        1.4767085912   -1.6490900353    0.3351312672
H       -1.0847949075   -1.9529046960   -0.6199379679
H       -2.1822715549    0.3918113226    0.3128184767
H       -1.0324335230    2.3891447552   -0.7244592174
C       -0.3064872331   -0.5373723251    1.0777413015
H       -0.5074025323   -0.8886956743    2.0803131798
