13   
From optimize.out: Frame 2 / 3, Energy=    -286.8584616693
C        1.5360581838    0.4300917552   -0.3803367058
C        0.8437398609   -0.7972775747    0.0801986016
C       -0.5859840657   -1.0274911740   -0.3819403129
C       -1.1171137319    0.3117013152    0.1012930658
C       -0.4277233869    1.5419629907   -0.3563521428
N        0.8835531480    1.5723176511   -0.5867061993
H        2.6089057712    0.4191080093   -0.5624229367
H        1.4551752420   -1.6865592210    0.2246630577
H       -1.0692904091   -1.8717942217   -0.8535197564
H       -2.1914735373    0.3770133129    0.2647657020
H       -0.9907430647    2.4598855674   -0.5142812157
C       -0.3510370587   -0.6403404668    1.0056614644
H       -0.5940669521   -1.0886179431    1.9589773776
13   
From optimize.out: Frame 1 / 3, Energy=    -286.8584590534
C        1.5366063708    0.4306394940   -0.3797269958
C        0.8434483316   -0.7968071009    0.0803704740
C       -0.5858167307   -1.0277566172   -0.3817094348
C       -1.1173886401    0.3114209016    0.1006779164
C       -0.4274396035    1.5421362483   -0.3551205125
N        0.8839183099    1.5727556655   -0.5858436800
H        2.6088040849    0.4182818602   -0.5653988345
H        1.4549523773   -1.6858761577    0.2258393013
H       -1.0688158938   -1.8723541411   -0.8530182913
H       -2.1917641921    0.3765177473    0.2642255134
H       -0.9903480075    2.4599444084   -0.5140737577
C       -0.3511969634   -0.6397158462    1.0056778007
H       -0.5949594434   -1.0891864621    1.9581005007
13   
From optimize.out: Frame 35 / 36, Energy=    -286.8584590534
C        1.5366063708    0.4306394940   -0.3797269958
C        0.8434483316   -0.7968071009    0.0803704740
C       -0.5858167307   -1.0277566172   -0.3817094348
C       -1.1173886401    0.3114209016    0.1006779164
C       -0.4274396035    1.5421362483   -0.3551205125
N        0.8839183099    1.5727556655   -0.5858436800
H        2.6088040849    0.4182818602   -0.5653988345
H        1.4549523773   -1.6858761577    0.2258393013
H       -1.0688158938   -1.8723541411   -0.8530182913
H       -2.1917641921    0.3765177473    0.2642255134
H       -0.9903480075    2.4599444084   -0.5140737577
C       -0.3511969634   -0.6397158462    1.0056778007
H       -0.5949594434   -1.0891864621    1.9581005007
13   
From optimize.out: Frame 32 / 36, Energy=    -286.8584272614
C        1.5405623954    0.4288829332   -0.3863881640
C        0.8514207340   -0.7967622259    0.0859927099
C       -0.5830473440   -1.0139148361   -0.3842219091
C       -1.1180502639    0.3249026486    0.1281736973
C       -0.4280918321    1.5440208517   -0.3553484408
N        0.8846398706    1.5717707900   -0.5785841861
H        2.6157627136    0.4311873796   -0.5519143399
H        1.4550709003   -1.6924783542    0.2165383960
H       -1.0774707845   -1.8700450333   -0.8188546370
H       -2.1928223050    0.3858545597    0.2866455088
H       -0.9962050094    2.4485447412   -0.5608841105
C       -0.3384675201   -0.6241166549    1.0060453394
H       -0.6133015547   -1.1378467996    1.9128001359
13   
From optimize.out: Frame 30 / 36, Energy=    -286.8582793221
C        1.5465899364    0.4302355200   -0.3982162513
C        0.8490985685   -0.7960920693    0.0691728019
C       -0.5807790900   -0.9910373635   -0.3842014124
C       -1.1115047730    0.3317884002    0.1449811928
C       -0.4324746608    1.5383244452   -0.3912785915
N        0.8811371430    1.5640702321   -0.6118448434
H        2.6302741299    0.4635753917   -0.4838916358
H        1.4524062295   -1.6938152462    0.1891260896
H       -1.0966857985   -1.8708402205   -0.7378187558
H       -2.1822503848    0.4005317580    0.3255076424
H       -0.9940441342    2.4482366972   -0.5886315974
C       -0.3104532946   -0.6034650702    1.0272171089
H       -0.6513138714   -1.2215124748    1.8398782519
13   
From optimize.out: Frame 27 / 36, Energy=    -286.8568730234
C        1.5414065346    0.4334351131   -0.3979084005
C        0.8337466315   -0.8068077174    0.0238369681
C       -0.5848211564   -0.9822202129   -0.3891900579
C       -1.1003776645    0.3239024552    0.1274516199
C       -0.4371342369    1.5369969716   -0.4286826315
N        0.8743371288    1.5567193096   -0.6556679366
H        2.6274479002    0.4925319841   -0.3862339299
H        1.4500844401   -1.6939910539    0.1585851562
H       -1.1221610258   -1.8815024277   -0.6509454511
H       -2.1638464439    0.4094511971    0.3445905657
H       -0.9834820360    2.4645337421   -0.5821890705
C       -0.2809604636   -0.5782516696    1.0508006711
H       -0.6542396081   -1.2747976913    1.7855524970
13   
From optimize.out: Frame 25 / 36, Energy=    -286.8553109162
C        1.5260356523    0.4370267390   -0.3795910532
C        0.8256227338   -0.8331004527   -0.0495150066
C       -0.5843818320   -0.9845307318   -0.3860313665
C       -1.0948063376    0.3106078796    0.0832576325
C       -0.4413362849    1.5438622621   -0.4437205650
N        0.8665091127    1.5565871248   -0.6721410620
H        2.6091595758    0.4997575003   -0.2980254069
H        1.4522638129   -1.7088041948    0.1045462825
H       -1.1351044879   -1.8976524167   -0.5617786837
H       -2.1524166692    0.4040210859    0.3263833436
H       -0.9749079538    2.4848964615   -0.5583685229
C       -0.2565367165   -0.5336793452    1.0733417588
H       -0.6401006059   -1.2789919120    1.7616426494
13   
From optimize.out: Frame 22 / 36, Energy=    -286.8518309075
C        1.5086908364    0.4342898521   -0.3484498637
C        0.8273476094   -0.8587871785   -0.1250604154
C       -0.5783703171   -0.9894464234   -0.3804556031
C       -1.1011824629    0.2967482828    0.0358393128
C       -0.4431542818    1.5492685132   -0.4395998806
N        0.8617686024    1.5587984130   -0.6563049898
H        2.5901080145    0.4865046334   -0.2366540834
H        1.4557744566   -1.7325914733    0.0278900512
H       -1.1327087178   -1.9119728367   -0.4892641163
H       -2.1564884231    0.3857042023    0.2883098286
H       -0.9736741336    2.4952310023   -0.5337588339
C       -0.2329055770   -0.4714559401    1.0946800151
H       -0.6252056059   -1.2422910470    1.7628285783
13   
From optimize.out: Frame 20 / 36, Energy=    -286.8477317970
C        1.4884956129    0.4251271355   -0.3129310882
C        0.8264306998   -0.8834132101   -0.1835884740
C       -0.5733597717   -0.9941379052   -0.3825508397
C       -1.1158328261    0.2825626195   -0.0132487168
C       -0.4448096350    1.5501872712   -0.4248184930
N        0.8589549443    1.5570542460   -0.6301078039
H        2.5702861332    0.4644082034   -0.1901431798
H        1.4545858084   -1.7583835252   -0.0391886903
H       -1.1287018205   -1.9219881836   -0.4428944709
H       -2.1705259140    0.3610922412    0.2416752839
H       -0.9772891638    2.4975405958   -0.5024924350
C       -0.1954681708   -0.3952654914    1.1084635284
H       -0.5927658966   -1.1847839969    1.7718253794
13   
From optimize.out: Frame 17 / 36, Energy=    -286.8356235109
C        1.4674262132    0.4137861559   -0.2791102633
C        0.8213001250   -0.9096752914   -0.2228661033
C       -0.5720107897   -1.0010686283   -0.3887847845
C       -1.1328137709    0.2687278307   -0.0611833572
C       -0.4473336706    1.5480445893   -0.4026757992
N        0.8569255267    1.5535422943   -0.6033022450
H        2.5504768250    0.4412739013   -0.1527217395
H        1.4467209193   -1.7868473440   -0.0831553888
H       -1.1282706231   -1.9317652443   -0.4161988633
H       -2.1880891992    0.3378213843    0.1912787471
H       -0.9860137004    2.4940429939   -0.4613252225
C       -0.1457142280   -0.3114231204    1.1062869579
H       -0.5426036273   -1.1164595213    1.7737580615
13   
From optimize.out: Frame 15 / 36, Energy=    -286.8228066765
C        1.4488105075    0.4025819878   -0.2490593916
C        0.8141656898   -0.9374796687   -0.2470315597
C       -0.5741089586   -1.0124733011   -0.3951819880
C       -1.1496505873    0.2541099006   -0.1015860953
C       -0.4496636905    1.5444449249   -0.3763656919
N        0.8558382925    1.5523018631   -0.5805805561
H        2.5327740152    0.4202339602   -0.1208310094
H        1.4338856932   -1.8178623372   -0.1053153240
H       -1.1305973604   -1.9451453815   -0.4002793114
H       -2.2058187767    0.3166425141    0.1466582771
H       -0.9980864989    2.4865552970   -0.4121964068
C       -0.0923780527   -0.2236922853    1.0838149529
H       -0.4851702732   -1.0402174739    1.7579541042
13   
From optimize.out: Frame 12 / 36, Energy=    -286.7961341248
C        1.4358292145    0.3917194238   -0.2237477463
C        0.8073041353   -0.9647620896   -0.2604854651
C       -0.5790093041   -1.0289267679   -0.4002242892
C       -1.1674156058    0.2380007223   -0.1316370055
C       -0.4502275215    1.5397441658   -0.3481642408
N        0.8559563558    1.5577901991   -0.5642314024
H        2.5194129181    0.4011405760   -0.0931034831
H        1.4188976112   -1.8490592707   -0.1107457913
H       -1.1340988511   -1.9634504887   -0.3886193636
H       -2.2238192716    0.2948945065    0.1146631394
H       -1.0099721697    2.4761854140   -0.3576908109
C       -0.0428142552   -0.1354818084    1.0434165847
H       -0.4300432560   -0.9577945821    1.7205698740
13   
From optimize.out: Frame 10 / 36, Energy=    -286.7721999950
C        1.4318746398    0.3803395484   -0.2048937796
C        0.8021248137   -0.9876165008   -0.2656146498
C       -0.5866243453   -1.0491811102   -0.4028236583
C       -1.1883140669    0.2213465651   -0.1535495726
C       -0.4490165763    1.5318912552   -0.3179240839
N        0.8577491013    1.5721468373   -0.5540356818
H        2.5137903435    0.3818261220   -0.0719481793
H        1.4048201309   -1.8755686984   -0.1038603525
H       -1.1382870548   -1.9851973451   -0.3768067773
H       -2.2442439581    0.2719294679    0.0940589830
H       -1.0196005940    2.4613355279   -0.2978178674
C       -0.0009139346   -0.0509769550    0.9914289513
H       -0.3833584994   -0.8722747143    1.6637866681
13   
From optimize.out: Frame 7 / 36, Energy=    -286.7254775872
C        1.4401714701    0.3695001116   -0.1954102264
C        0.7992872999   -1.0018442973   -0.2623415832
C       -0.5977694599   -1.0710283067   -0.4015924700
C       -1.2144094513    0.2063527996   -0.1703845282
C       -0.4480960516    1.5180221330   -0.2851647685
N        0.8642205372    1.5913609448   -0.5479604568
H        2.5200222490    0.3626741099   -0.0623428638
H        1.3936767172   -1.8921418997   -0.0845096946
H       -1.1443178849   -2.0073265662   -0.3610379749
H       -2.2696404299    0.2503804576    0.0806002512
H       -1.0268483445    2.4391888201   -0.2316248291
C        0.0322831005    0.0242964245    0.9315463899
H       -0.3485797516   -0.7894347312    1.5902227544
13   
From optimize.out: Frame 5 / 36, Energy=    -286.6875154658
C        1.4606291577    0.3600883175   -0.1944205641
C        0.8006856557   -1.0091976511   -0.2513717256
C       -0.6128453944   -1.0953769735   -0.3939921542
C       -1.2445643636    0.1967295129   -0.1804268351
C       -0.4517060722    1.5034122683   -0.2545098545
N        0.8762133831    1.6095248658   -0.5403640954
H        2.5381268612    0.3462859909   -0.0638065857
H        1.3886416394   -1.8993052053   -0.0540691364
H       -1.1536338992   -2.0298051216   -0.3368257463
H       -2.2992925342    0.2354563132    0.0752450443
H       -1.0340683466    2.4150000161   -0.1674330699
C        0.0569926667    0.0850846111    0.8644001649
H       -0.3251787536   -0.7178969444    1.4975745582
13   
From optimize.out: Frame 2 / 36, Energy=    -286.6199130037
C        1.4803896647    0.3535225387   -0.1985366711
C        0.8030806533   -1.0165106956   -0.2426476531
C       -0.6265669574   -1.1198693187   -0.3890569044
C       -1.2654743648    0.1929548093   -0.1838918153
C       -0.4586871474    1.5021745551   -0.2417906600
N        0.8858510447    1.6273071592   -0.5293334601
H        2.5568750432    0.3326611653   -0.0609145979
H        1.3890312939   -1.9041580325   -0.0188147635
H       -1.1626459807   -2.0512477895   -0.3141482773
H       -2.3200362345    0.2310551818    0.0896928458
H       -1.0451271550    2.4043752372   -0.1265346763
C        0.0678487680    0.1138375532    0.8065578708
H       -0.3045386281   -0.6661023634    1.4094187622
13   
C5H5N+CH->C6H6N atoms 1-13 frame 74 charge +0.000 sz -1.000 sz^2 0.727
C        1.4744151986    0.3636324152   -0.2006298214
C        0.8015407266   -1.0266639709   -0.2706139635
C       -0.6382530712   -1.1388384251   -0.4476608320
C       -1.2632880625    0.1925781873   -0.2010797614
C       -0.4480923936    1.5232787246   -0.2681204768
N        0.8963277691    1.6637680272   -0.5917808612
H        2.5549772738    0.3356553853   -0.0034708403
H        1.3915083505   -1.9057364976    0.0327589149
H       -1.1773504512   -2.0750730914   -0.3521158995
H       -2.3064329797    0.2380414630    0.1663595835
H       -1.0491649828    2.4248761458   -0.1161327902
C        0.0427733461    0.0618402583    0.7791220629
H       -0.2789607236   -0.6573586217    1.4733646850
13   
C5H5N+CH->C6H6N atoms 1-13 frame 77 charge +0.000 sz -1.000 sz^2 0.521
C        1.4534639418    0.3689383399   -0.1934586070
C        0.7998472275   -1.0253440668   -0.2928118269
C       -0.6348193318   -1.1268934128   -0.4796017718
C       -1.2431963835    0.1991568308   -0.2069846850
C       -0.4427980645    1.5340504881   -0.2956444340
N        0.8885532638    1.6584631847   -0.6179683629
H        2.5274603865    0.3416660036    0.0347729010
H        1.3855433290   -1.8972704513    0.0321797533
H       -1.1785692353   -2.0626407568   -0.3774667507
H       -2.2706569649    0.2474094320    0.1940079532
H       -1.0478364101    2.4352748016   -0.1448300578
C        0.0297874852    0.0133720755    0.7894588005
H       -0.2667792437   -0.6861824686    1.5583470881
13   
From optimize.out: Frame 1 / 54, Energy=    -286.6258382465
C        1.4169654143    0.3676850910   -0.1748310977
C        0.8017425313   -1.0196694482   -0.3017633622
C       -0.6202235680   -1.0908077419   -0.4766423271
C       -1.2048473921    0.2185404305   -0.1980441919
C       -0.4498656838    1.5416274961   -0.3314230554
N        0.8596065516    1.6175660132   -0.6042292513
H        2.4824677002    0.3496860125    0.0580743161
H        1.3834822953   -1.8904192663   -0.0038332627
H       -1.1730052038   -2.0196440363   -0.3808695192
H       -2.2239115159    0.2723576830    0.1872051576
H       -1.0493040990    2.4469522797   -0.2186760177
C        0.0333510850   -0.0411315672    0.8295992442
H       -0.2564581149   -0.7527429462    1.6154333673
13   
From optimize.out: Frame 4 / 54, Energy=    -286.6976593611
C        1.3811790508    0.3648066961   -0.1522072724
C        0.8065253366   -1.0175250187   -0.3118265779
C       -0.6110670945   -1.0625994096   -0.4762811446
C       -1.1701630223    0.2450443211   -0.1839399733
C       -0.4630746568    1.5526326361   -0.3752599882
N        0.8358939131    1.5854938165   -0.5936450530
H        2.4383184451    0.3569995459    0.0986989797
H        1.3873921577   -1.8880044019   -0.0369122558
H       -1.1737012988   -1.9837616535   -0.3818825213
H       -2.1828025021    0.3056634497    0.1969636705
H       -1.0546615282    2.4631895361   -0.3013195763
C        0.0414468068   -0.1011885289    0.8604022283
H       -0.2352856072   -0.8207509888    1.6572094844
13   
From optimize.out: Frame 7 / 54, Energy=    -286.7454472360
C        1.3494708219    0.3630661771   -0.1252763887
C        0.8106748099   -1.0155763257   -0.3281485865
C       -0.6070583484   -1.0403018715   -0.4791181692
C       -1.1439486985    0.2731065658   -0.1610176762
C       -0.4777705591    1.5625776923   -0.4229495613
N        0.8242072009    1.5644636190   -0.5895277047
H        2.3961538182    0.3636085989    0.1603445924
H        1.3924878180   -1.8887269299   -0.0761277956
H       -1.1781779836   -1.9549604255   -0.3790225557
H       -2.1513707272    0.3336354080    0.2267024738
H       -1.0578811116    2.4802653085   -0.3924394611
C        0.0492621263   -0.1605976048    0.8809611050
H       -0.2060491669   -0.8805602121    1.6856197277
13   
From optimize.out: Frame 9 / 54, Energy=    -286.7658450263
C        1.3236717181    0.3638485399   -0.0948551581
C        0.8135587911   -1.0125405361   -0.3498879147
C       -0.6087871082   -1.0219331571   -0.4824616224
C       -1.1254368304    0.2982354498   -0.1306469679
C       -0.4895876661    1.5695564848   -0.4710750157
N        0.8203328632    1.5534989722   -0.5874627653
H        2.3574609651    0.3704785722    0.2345881417
H        1.3971232942   -1.8906595436   -0.1217933199
H       -1.1869918580   -1.9311683212   -0.3715488074
H       -2.1289053665    0.3521312448    0.2690494842
H       -1.0555062922    2.4949307200   -0.4889125011
C        0.0551315739   -0.2161985523    0.8917631099
H       -0.1720640844   -0.9301798734    1.7032433368
13   
From optimize.out: Frame 12 / 54, Energy=    -286.7832204408
C        1.3022304687    0.3659695783   -0.0598590781
C        0.8150634842   -1.0073869594   -0.3767703266
C       -0.6164039539   -1.0071698777   -0.4873449894
C       -1.1123809410    0.3195816523   -0.0944651869
C       -0.4971928296    1.5713180208   -0.5166384873
N        0.8204555129    1.5499849743   -0.5823673223
H        2.3205350385    0.3758577791    0.3164337107
H        1.4003704507   -1.8914343075   -0.1728047550
H       -1.1993539028   -1.9121205296   -0.3618453261
H       -2.1128200997    0.3639742332    0.3176568215
H       -1.0484967439    2.5026582173   -0.5873157051
C        0.0599873123   -0.2651048682    0.8915842837
H       -0.1319937964   -0.9661279129    1.7137363610
13   
From optimize.out: Frame 14 / 54, Energy=    -286.7892968937
C        1.2816254731    0.3675136032   -0.0179331101
C        0.8153705028   -1.0002339184   -0.4108551183
C       -0.6294641577   -0.9969067073   -0.4973002561
C       -1.1027786407    0.3369085012   -0.0548121177
C       -0.4998658802    1.5673278166   -0.5548263417
N        0.8215993203    1.5525851834   -0.5684178303
H        2.2833174216    0.3761705037    0.4016601275
H        1.4014141334   -1.8900433675   -0.2278554680
H       -1.2131206915   -1.8990242209   -0.3508522072
H       -2.1015837370    0.3719329445    0.3658119467
H       -1.0390084365    2.5001073949   -0.6838678355
C        0.0653359381   -0.3048682805    0.8781142369
H       -0.0828412457   -0.9814694529    1.7211339737
13   
From optimize.out: Frame 17 / 54, Energy=    -286.7954280550
C        1.2583658923    0.3654747481    0.0321147296
C        0.8163373107   -0.9931382316   -0.4572335064
C       -0.6469311219   -0.9935886639   -0.5207706632
C       -1.0960821807    0.3473512537   -0.0142924994
C       -0.4961326851    1.5599422570   -0.5752483776
N        0.8213944096    1.5609692786   -0.5421571738
H        2.2461386965    0.3680519458    0.4836786847
H        1.4012941484   -1.8871532194   -0.2826895821
H       -1.2251222343   -1.8937242377   -0.3375826903
H       -2.0951251674    0.3724650040    0.4090154929
H       -1.0280059037    2.4862670632   -0.7715531466
C        0.0714847621   -0.3312116844    0.8487556958
H       -0.0276159264   -0.9617055134    1.7279630365
13   
From optimize.out: Frame 19 / 54, Energy=    -286.7988145477
C        1.2373176502    0.3571265891    0.0814088011
C        0.8201143526   -0.9880378190   -0.5124925110
C       -0.6676801747   -0.9964357917   -0.5752411833
C       -1.0912818335    0.3435841528    0.0300400623
C       -0.4869221155    1.5516117051   -0.5649368535
N        0.8170797938    1.5718410657   -0.5098226483
H        2.2180316528    0.3532246524    0.5474993177
H        1.4013859720   -1.8833302504   -0.3232331055
H       -1.2318577680   -1.8934614768   -0.3306723281
H       -2.0918781667    0.3566371969    0.4508031965
H       -1.0155809996    2.4604645837   -0.8418009209
C        0.0750762244   -0.3364621010    0.8112107444
H        0.0161954123   -0.8967625068    1.7372374287
13   
From optimize.out: Frame 22 / 54, Energy=    -286.8058903835
C        1.2340222942    0.3455793564    0.1148420456
C        0.8149948523   -0.9851297871   -0.5341369645
C       -0.6941422901   -0.9925592416   -0.6779768921
C       -1.0851981892    0.3234987610    0.0768341135
C       -0.4799114880    1.5403936879   -0.5278239220
N        0.8078054173    1.5776517344   -0.4939889740
H        2.2193366977    0.3389260789    0.5696394652
H        1.3894892842   -1.8812316359   -0.3227852417
H       -1.2334545247   -1.8867991696   -0.3615830905
H       -2.0882673501    0.3260892051    0.4907588146
H       -1.0129374990    2.4205369981   -0.8828483740
C        0.0809958974   -0.3158335632    0.7928764180
H        0.0472668981   -0.8111224244    1.7561926019
13   
From optimize.out: Frame 24 / 54, Energy=    -286.8122152753
C        1.2531601139    0.3362211618    0.1267234774
C        0.7936130750   -0.9837406683   -0.5129498495
C       -0.7182968977   -0.9994998738   -0.7790940326
C       -1.0814353304    0.2982432037    0.0933320738
C       -0.4730656432    1.5328103215   -0.4864680286
N        0.8028731963    1.5847743691   -0.4978167017
H        2.2516661080    0.3266758528    0.5506210104
H        1.3622125814   -1.8826101024   -0.2925181031
H       -1.2376237798   -1.8939938203   -0.4214259714
H       -2.0879192194    0.2999113680    0.5000184491
H       -1.0345961165    2.3871642703   -0.8640359180
C        0.0973522892   -0.2749900373    0.7999558001
H        0.0720596233   -0.7309660450    1.7836577942
13   
From optimize.out: Frame 27 / 54, Energy=    -286.8279793287
C        1.2721954721    0.3294937806    0.1261495123
C        0.7630433917   -0.9891297070   -0.4582697842
C       -0.7188025651   -0.9987333650   -0.8391543535
C       -1.0770095750    0.2758511139    0.0911954786
C       -0.4754182381    1.5390140553   -0.4509615251
N        0.8019885708    1.5918355835   -0.5036929652
H        2.2886140427    0.3202793233    0.5070582121
H        1.3313298135   -1.8967165113   -0.2640577094
H       -1.2425907764   -1.9027619419   -0.5155047061
H       -2.0873770710    0.2873931845    0.4974976473
H       -1.0665068556    2.3651611017   -0.8492371086
C        0.1187298832   -0.2411216964    0.8355529758
H        0.0918039073   -0.6805649213    1.8234243260
13   
From optimize.out: Frame 29 / 54, Energy=    -286.8332659898
C        1.2694124374    0.3283826747    0.1312571578
C        0.7255605297   -0.9926202346   -0.3925165407
C       -0.7023977788   -0.9627294335   -0.8564112585
C       -1.0633706182    0.2558865705    0.0957431804
C       -0.4818509530    1.5387382997   -0.4517115725
N        0.8028031137    1.5846619032   -0.5110950489
H        2.2981857218    0.3255620440    0.4805311756
H        1.3020378407   -1.9074410089   -0.2629850618
H       -1.2520779655   -1.8758766995   -0.6276696073
H       -2.0776834304    0.2810332250    0.5015661997
H       -1.0832708687    2.3416787008   -0.8806484673
C        0.1415923916   -0.2402880848    0.8942701318
H        0.1210595796   -0.6769879568    1.8796697117
13   
From optimize.out: Frame 32 / 54, Energy=    -286.8353254772
C        1.2590325281    0.3342000998    0.1439878491
C        0.6997412938   -0.9961106252   -0.3391196658
C       -0.6909132501   -0.9196421662   -0.8563726434
C       -1.0503099652    0.2415254091    0.1118958406
C       -0.4835892676    1.5215767367   -0.4715745631
N        0.7983051491    1.5622949205   -0.5179167615
H        2.2915103653    0.3376229977    0.4802264905
H        1.2948172377   -1.9043886409   -0.2852335816
H       -1.2766268567   -1.8304331976   -0.7411078184
H       -2.0643611029    0.2782684151    0.5152907280
H       -1.0836125177    2.3071169831   -0.9306112094
C        0.1557230265   -0.2545045181    0.9478611135
H        0.1502833597   -0.6775264137    1.9426742214
13   
From optimize.out: Frame 34 / 54, Energy=    -286.8355659623
C        1.2511251098    0.3384102179    0.1562246790
C        0.6826627258   -1.0094751343   -0.2907388518
C       -0.6829305865   -0.8941468348   -0.8529010556
C       -1.0455480637    0.2317387260    0.1307465996
C       -0.4856674055    1.5030906791   -0.4861252083
N        0.7925619448    1.5380183844   -0.5231036468
H        2.2839533949    0.3391665995    0.4879468420
H        1.3071804326   -1.8964428909   -0.3112360138
H       -1.3019891369   -1.7881683462   -0.8685706066
H       -2.0566777333    0.2774893689    0.5349022188
H       -1.0878057749    2.2708321712   -0.9694326121
C        0.1633688948   -0.2652128836    0.9877434510
H        0.1797661982   -0.6453000572    2.0045442047
13   
From optimize.out: Frame 37 / 54, Energy=    -286.8356721149
C        1.2458399508    0.3383552821    0.1653877250
C        0.6700106157   -1.0337889466   -0.2520168780
C       -0.6773990007   -0.8906647889   -0.8432343516
C       -1.0479196269    0.2251436933    0.1508304445
C       -0.4887978550    1.4884144225   -0.4900387965
N        0.7892940519    1.5230901545   -0.5254457659
H        2.2786372767    0.3294531459    0.4972174809
H        1.3297247782   -1.8914803947   -0.3266850661
H       -1.3237827758   -1.7483987567   -1.0011783195
H       -2.0574661587    0.2670296977    0.5578445449
H       -1.0971283044    2.2389905111   -0.9915292799
C        0.1681023821   -0.2716630322    1.0075474261
H        0.2108846660   -0.5744809880    2.0513008361
13   
From optimize.out: Frame 39 / 54, Energy=    -286.8357630750
C        1.2504426912    0.3388633526    0.1635037263
C        0.6633409877   -1.0528264525   -0.2282392750
C       -0.6750089736   -0.9008736694   -0.8125463325
C       -1.0448455256    0.2190052634    0.1711115070
C       -0.4971214588    1.4781234835   -0.4854935286
N        0.7827753261    1.5180968389   -0.5364958938
H        2.2897848378    0.3322304956    0.4755978023
H        1.3235438516   -1.9121335609   -0.2871677760
H       -1.3301410866   -1.7007482222   -1.1340953701
H       -2.0530668724    0.2466096314    0.5856334726
H       -1.1120888151    2.2153940118   -0.9993145175
C        0.1851083062   -0.2590409919    1.0170768948
H        0.2172767315   -0.5227001804    2.0704292903
13   
From optimize.out: Frame 42 / 54, Energy=    -286.8365782394
C        1.2504234216    0.3434362031    0.1668923515
C        0.6521645243   -1.0672016070   -0.1990917419
C       -0.6859553556   -0.9163683528   -0.7736233225
C       -1.0475158557    0.2073627280    0.1921015896
C       -0.5042200705    1.4579788940   -0.4958276439
N        0.7754578936    1.5021091846   -0.5498101530
H        2.2942716130    0.3341386733    0.4637827628
H        1.3190720574   -1.9210547543   -0.2597290201
H       -1.3171453746   -1.6345523230   -1.2756892317
H       -2.0483576027    0.2567938142    0.6234982526
H       -1.1238309246    2.1819613131   -1.0225511692
C        0.1971021198   -0.2483174656    1.0365670520
H        0.2385335539   -0.4962863079    2.0934802737
13   
From optimize.out: Frame 44 / 54, Energy=    -286.8375223389
C        1.2494977412    0.3447926592    0.1671026594
C        0.6395887992   -1.0844602507   -0.1705220258
C       -0.6994450548   -0.9418536067   -0.7280909905
C       -1.0500537016    0.1988415364    0.2122621810
C       -0.5123708371    1.4382828380   -0.5039713552
N        0.7676269673    1.4845966336   -0.5664920186
H        2.2978901102    0.3348091769    0.4477968043
H        1.3140481323   -1.9322961467   -0.2315984552
H       -1.2871608464   -1.5455605269   -1.4029204506
H       -2.0462474800    0.2629330291    0.6537586834
H       -1.1368271146    2.1507924234   -1.0405514181
C        0.2075547543   -0.2386027319    1.0517895543
H        0.2558985300   -0.4722750337    2.1114368314
13   
From optimize.out: Frame 48 / 54, Energy=    -286.8382224568
C        1.2472805849    0.3425823593    0.1647634113
C        0.6263073409   -1.1027077287   -0.1435159191
C       -0.7167128181   -0.9746793497   -0.6830961015
C       -1.0519143579    0.1931129659    0.2297900832
C       -0.5217840605    1.4198163126   -0.5110039685
N        0.7582926745    1.4660672638   -0.5852101111
H        2.2998034032    0.3319443535    0.4292683427
H        1.3082545415   -1.9447021435   -0.2031594390
H       -1.2381736266   -1.4376001678   -1.5105307871
H       -2.0444048563    0.2672714350    0.6791094573
H       -1.1515040406    2.1229046573   -1.0538841545
C        0.2143460182   -0.2320769440    1.0626835652
H        0.2702091969   -0.4519330137    2.1247856210
13   
From optimize.out: Frame 50 / 54, Energy=    -286.8383128120
C        1.2439082733    0.3363866681    0.1604822041
C        0.6133790953   -1.1203214895   -0.1173526416
C       -0.7349495709   -1.0075014000   -0.6454155863
C       -1.0527923782    0.1885211774    0.2455438474
C       -0.5321283151    1.4020647546   -0.5170249106
N        0.7476001237    1.4478412916   -0.6041090005
H        2.3003326415    0.3254647693    0.4089683270
H        1.3013571854   -1.9578344568   -0.1733622355
H       -1.1784375207   -1.3193669912   -1.6057849373
H       -2.0415352841    0.2675635417    0.7032229869
H       -1.1673676461    2.0966699164   -1.0645717131
C        0.2181761751   -0.2277335555    1.0723431082
H        0.2824572209   -0.4317542263    2.1370605513
13   
From optimize.out: Frame 53 / 54, Energy=    -286.8383313550
C        1.2424493921    0.3285236241    0.1575195409
C        0.6190490984   -1.1149008724   -0.1206703554
C       -0.7309218895   -1.0002904859   -0.6569142951
C       -1.0521277532    0.1899644142    0.2443057207
C       -0.5326767743    1.4039050335   -0.5165098491
N        0.7470706984    1.4475037531   -0.6047544058
H        2.2979473366    0.3233771871    0.4108208230
H        1.2994654035   -1.9592477079   -0.1712515286
H       -1.1770910827   -1.3194024177   -1.5961626189
H       -2.0409924637    0.2600208072    0.7018674366
H       -1.1682243449    2.1008685039   -1.0606043518
C        0.2142246931   -0.2308062886    1.0736017193
H        0.2818276862   -0.4295155504    2.1387521642
13   
From optimize.out: Frame 1 / 3, Energy=    -286.8383128750
C        1.2424493921    0.3285236241    0.1575195409
C        0.6190490984   -1.1149008725   -0.1206703554
C       -0.7309218895   -1.0002904860   -0.6569142951
C       -1.0521277532    0.1899644142    0.2443057208
C       -0.5326767742    1.4039050335   -0.5165098491
N        0.7470706984    1.4475037531   -0.6047544058
H        2.2979473366    0.3233771871    0.4108208231
H        1.2994654036   -1.9592477079   -0.1712515286
H       -1.1770910827   -1.3194024177   -1.5961626189
H       -2.0409924638    0.2600208072    0.7018674366
H       -1.1682243448    2.1008685038   -1.0606043518
C        0.2142246930   -0.2308062886    1.0736017193
H        0.2818276862   -0.4295155504    2.1387521642
13   
From optimize.out: Frame 2 / 3, Energy=    -286.8383166369
C        1.2425381889    0.3277067981    0.1556931888
C        0.6185841314   -1.1159574044   -0.1200185899
C       -0.7301473301   -1.0005102675   -0.6579204265
C       -1.0530701161    0.1890328593    0.2437334282
C       -0.5328981012    1.4036383952   -0.5154230618
N        0.7466367192    1.4463055258   -0.6061543810
H        2.2974935004    0.3227267799    0.4101118343
H        1.2981713623   -1.9610977736   -0.1679564784
H       -1.1741498152   -1.3199322085   -1.5978683366
H       -2.0430188986    0.2589434978    0.6999742199
H       -1.1685166811    2.1036960416   -1.0553544173
C        0.2142445099   -0.2292037454    1.0727384849
H        0.2841325299   -0.4253484982    2.1384445353
