13   
From optimize.out: Frame 2 / 3, Energy=    -286.8584616693
C        1.5360581838    0.4300917552   -0.3803367058
C        0.8437398609   -0.7972775747    0.0801986016
C       -0.5859840657   -1.0274911740   -0.3819403129
C       -1.1171137319    0.3117013152    0.1012930658
C       -0.4277233869    1.5419629907   -0.3563521428
N        0.8835531480    1.5723176511   -0.5867061993
H        2.6089057712    0.4191080093   -0.5624229367
H        1.4551752420   -1.6865592210    0.2246630577
H       -1.0692904091   -1.8717942217   -0.8535197564
H       -2.1914735373    0.3770133129    0.2647657020
H       -0.9907430647    2.4598855674   -0.5142812157
C       -0.3510370587   -0.6403404668    1.0056614644
H       -0.5940669521   -1.0886179431    1.9589773776
13   
From optimize.out: Frame 1 / 3, Energy=    -286.8584590534
C        1.5431027784    0.4294529979   -0.3913732602
C        0.8504420281   -0.7964797800    0.0789037480
C       -0.5820913598   -1.0042728375   -0.3842132705
C       -1.1152915844    0.3278047353    0.1352574278
C       -0.4299390304    1.5416200295   -0.3704916548
N        0.8831636020    1.5685252930   -0.5926023085
H        2.6218787326    0.4448377148   -0.5232453155
H        1.4539478412   -1.6930418041    0.2049851346
H       -1.0855691939   -1.8703801749   -0.7847010453
H       -2.1883666362    0.3920404496    0.3030244440
H       -0.9952942814    2.4484149122   -0.5725786380
C       -0.3266605723   -0.6154127847    1.0149684480
H       -0.6293223238   -1.1731087510    1.8820662905
13   
From optimize.out: Frame 35 / 36, Energy=    -286.8584590534
C        1.5443541626    0.4316156111   -0.3980834650
C        0.8424767668   -0.8007140852    0.0496179468
C       -0.5825225678   -0.9872342328   -0.3863531814
C       -1.1067052805    0.3283869295    0.1374201042
C       -0.4344844912    1.5377518616   -0.4074121997
N        0.8782040704    1.5608995344   -0.6307472031
H        2.6290550829    0.4760653345   -0.4417686146
H        1.4514047644   -1.6938910779    0.1759527678
H       -1.1076741125   -1.8754391856   -0.7003474060
H       -2.1743121521    0.4043790092    0.3337387428
H       -0.9894883494    2.4552661555   -0.5858527210
C       -0.2977320543   -0.5925896907    1.0373894848
H       -0.6525758391   -1.2444961634    1.8164457444
13   
From optimize.out: Frame 30 / 36, Energy=    -286.8582793221
C        1.5345304351    0.4350418119   -0.3897142122
C        0.8301124400   -0.8185696620   -0.0089767294
C       -0.5846246265   -0.9832538138   -0.3877770306
C       -1.0978853548    0.3179551827    0.1076816254
C       -0.4390140054    1.5400681304   -0.4354097878
N        0.8708352987    1.5566601773   -0.6630371200
H        2.6192666952    0.4957642884   -0.3467742180
H        1.4510593734   -1.7006176502    0.1344110932
H       -1.1279512292   -1.8887270574   -0.6110570726
H       -2.1587333822    0.4070220597    0.3364456414
H       -0.9796464564    2.4736429191   -0.5715330487
C       -0.2700346030   -0.5583124276    1.0608843319
H       -0.6479145849   -1.2766739583    1.7748565272
13   
From optimize.out: Frame 27 / 36, Energy=    -286.8568730234
C        1.5180463520    0.4357660850   -0.3652469221
C        0.8264172392   -0.8449321704   -0.0843124330
C       -0.5816128319   -0.9867949781   -0.3834630805
C       -1.0977432831    0.3042239271    0.0614159943
C       -0.4421736834    1.5463524680   -0.4418225117
N        0.8643255577    1.5576056796   -0.6648467132
H        2.6003841213    0.4936530173   -0.2697567914
H        1.4538808717   -1.7197609967    0.0692371935
H       -1.1340009578   -1.9042486317   -0.5283773115
H       -2.1542921843    0.3955840357    0.3088460722
H       -0.9743396364    2.4896567167   -0.5470329056
C       -0.2456518348   -0.5050182473    1.0831705018
H       -0.6332397301   -1.2620869052    1.7621889072
13   
From optimize.out: Frame 25 / 36, Energy=    -286.8553109162
C        1.4993103432    0.4300338556   -0.3319517234
C        0.8269217134   -0.8702257407   -0.1522461533
C       -0.5760429655   -0.9916255730   -0.3814288210
C       -1.1079874201    0.2901591744    0.0130383804
C       -0.4439231779    1.5496952677   -0.4327340638
N        0.8604616844    1.5579882637   -0.6441366410
H        2.5809009353    0.4762410475   -0.2150502020
H        1.4552223406   -1.7445716412   -0.0032673993
H       -1.1308475513   -1.9166248721   -0.4677258480
H       -2.1630087069    0.3742721756    0.2666485170
H       -0.9753532815    2.4963037870   -0.5192358829
C       -0.2155162506   -0.4360661865    1.1010823286
H       -0.6101376631   -1.2155795580    1.7670075086
13   
From optimize.out: Frame 22 / 36, Energy=    -286.8518309075
C        1.4786502234    0.4198276793   -0.2971271641
C        0.8240332652   -0.8956850557   -0.2019422745
C       -0.5727294142   -0.9973765200   -0.3854638612
C       -1.1237677467    0.2760978466   -0.0356477985
C       -0.4459890760    1.5491860306   -0.4144715706
N        0.8580066303    1.5554131678   -0.6175820000
H        2.5610295641    0.4535979184   -0.1726567464
H        1.4509106730   -1.7716842071   -0.0597336169
H       -1.1285003289   -1.9265568458   -0.4304200455
H       -2.1787329529    0.3502181464    0.2181257978
H       -0.9813659986    2.4959062231   -0.4832556628
C       -0.1722189586   -0.3560873084    1.1074464522
H       -0.5693258800   -1.1528570752    1.7727284905
13   
From optimize.out: Frame 20 / 36, Energy=    -286.8477317970
C        1.4586833117    0.4085240971   -0.2649968145
C        0.8179494240   -0.9227336699   -0.2342154556
C       -0.5729961987   -1.0064248545   -0.3917892432
C       -1.1407212136    0.2618624922   -0.0801585797
C       -0.4484279688    1.5463540001   -0.3903192075
N        0.8564149051    1.5529597235   -0.5926309608
H        2.5421626669    0.4313924531   -0.1377441977
H        1.4406928311   -1.8014135943   -0.0935628443
H       -1.1293633797   -1.9380492511   -0.4087222156
H       -2.1964159288    0.3278746878    0.1703226589
H       -0.9916837131    2.4905263829   -0.4382517812
C       -0.1206647922   -0.2702201676    1.0957329382
H       -0.5156299438   -1.0806522994    1.7663357030
13   
From optimize.out: Frame 17 / 36, Energy=    -286.8356235109
C        1.4426900783    0.3974604985   -0.2371254392
C        0.8109305992   -0.9503428038   -0.2533748165
C       -0.5764193769   -1.0202307933   -0.3975593357
C       -1.1580264507    0.2465147339   -0.1157545196
C       -0.4499295259    1.5422286077   -0.3630692519
N        0.8558939571    1.5548895076   -0.5728722456
H        2.5264745157    0.4112317980   -0.1077580158
H        1.4268191017   -1.8325710894   -0.1078756845
H       -1.1322482457   -1.9537758863   -0.3947818710
H       -2.2143056628    0.3063887481    0.1315731871
H       -1.0036903634    2.4816660972   -0.3864980700
C       -0.0690096785   -0.1821027475    1.0647679018
H       -0.4591789482   -1.0013566708    1.7403281610
13   
From optimize.out: Frame 12 / 36, Energy=    -286.7961341248
C        1.4339597477    0.3863397557   -0.2148348119
C        0.8048556875   -0.9755661750   -0.2629102114
C       -0.5826092024   -1.0385017092   -0.4014531026
C       -1.1772950447    0.2301277154   -0.1419958481
C       -0.4496550651    1.5360318183   -0.3338686532
N        0.8568038498    1.5645770879   -0.5594115260
H        2.5167549290    0.3920099531   -0.0831026256
H        1.4122426903   -1.8615912112   -0.1074908018
H       -1.1360787626   -1.9737309939   -0.3830351379
H       -2.2334747406    0.2840381236    0.1049228287
H       -1.0145238651    2.4691653496   -0.3293867610
C       -0.0230064973   -0.0955333868    1.0188401987
H       -0.4079737266   -0.9173663274    1.6937264519
13   
From optimize.out: Frame 10 / 36, Energy=    -286.7721999950
C        1.4358055046    0.3752040497   -0.2004006702
C        0.8007804590   -0.9943573335   -0.2640639392
C       -0.5919046677   -1.0595318554   -0.4022403470
C       -1.2006775148    0.2142428323   -0.1615256228
C       -0.4485804510    1.5253203549   -0.3024034048
N        0.8608151324    1.5812500800   -0.5511573671
H        2.5167428901    0.3727522989   -0.0673973815
H        1.3995406144   -1.8834207349   -0.0946924151
H       -1.1411443361   -1.9956817077   -0.3693358482
H       -2.2562762758    0.2617199971    0.0876825171
H       -1.0230344268    2.4508428805   -0.2664569889
C        0.0148141270   -0.0153140006    0.9630578449
H       -0.3668810554   -0.8330268612    1.6289336229
13   
From optimize.out: Frame 7 / 36, Energy=    -286.7254775872
C        1.4499048076    0.3650221779   -0.1949393659
C        0.7999526082   -1.0053428684   -0.2571223557
C       -0.6049422725   -1.0826128903   -0.3979763996
C       -1.2287565245    0.2017742422   -0.1751624466
C       -0.4498136235    1.5110710666   -0.2705798051
N        0.8699264811    1.6000029564   -0.5443462678
H        2.5286360427    0.3548769875   -0.0630392719
H        1.3912811331   -1.8955500499   -0.0700267172
H       -1.1487502486   -2.0180213901   -0.3495183057
H       -2.2837482775    0.2432798635    0.0780523563
H       -1.0302834697    2.4276802958   -0.2010837400
C        0.0440393924    0.0532181654    0.8995996281
H       -0.3374460489   -0.7553985566    1.5461426910
13   
From optimize.out: Frame 5 / 36, Energy=    -286.6875154658
C        1.4724473769    0.3561615046   -0.1968822952
C        0.8021180383   -1.0135713832   -0.2461540963
C       -0.6210518862   -1.1100251758   -0.3910405162
C       -1.2570700639    0.1944719659   -0.1824991450
C       -0.4558812625    1.5026720259   -0.2469028519
N        0.8819774051    1.6201599695   -0.5337669739
H        2.5493396365    0.3381373551   -0.0620769668
H        1.3888746811   -1.9022075486   -0.0329844595
H       -1.1590237788   -2.0426293953   -0.3232629718
H       -2.3116987744    0.2328241168    0.0838858795
H       -1.0406823177    2.4086456262   -0.1429728584
C        0.0634854042    0.1022809600    0.8298062696
H       -0.3128344586   -0.6869200210    1.4448509858
13   
From optimize.out: Frame 2 / 36, Energy=    -286.6199130037
C        1.4763041544    0.3604359605   -0.1999680270
C        0.8020276075   -1.0234537947   -0.2617718134
C       -0.6345582552   -1.1328409345   -0.4291319408
C       -1.2639793090    0.1926972644   -0.1956454228
C       -0.4514421527    1.5166061879   -0.2597957393
N        0.8930153275    1.6522401402   -0.5720367732
H        2.5555772944    0.3347086983   -0.0216329188
H        1.3907251758   -1.9052374319    0.0164527880
H       -1.1727013168   -2.0675402102   -0.3401116197
H       -2.3107339411    0.2358326001    0.1421197467
H       -1.0478883368    2.4183943429   -0.1194215700
C        0.0507014796    0.0782803206    0.7877964832
H       -0.2870477278   -0.6601231436    1.4531468072
13   
C5H5N+CH->C6H6N atoms 1-13 frame 74 charge +0.000 sz -1.000 sz^2 0.727
C        1.4556777177    0.3683776992   -0.1942163401
C        0.8000261679   -1.0254835320   -0.2904663305
C       -0.6351821515   -1.1281555605   -0.4762267913
C       -1.2453193337    0.1984617106   -0.2063607521
C       -0.4433574801    1.5329123095   -0.2927361658
N        0.8893747426    1.6590237111   -0.6152013088
H        2.5303679077    0.3410309027    0.0307319465
H        1.3861736120   -1.8981650005    0.0322409493
H       -1.1784404547   -2.0639543966   -0.3747880997
H       -2.2744371716    0.2464195828    0.1910865391
H       -1.0479767913    2.4341760467   -0.1417978139
C        0.0311596122    0.0184933768    0.7883665882
H       -0.2680663774   -0.6831368499    1.5493675790
13   
From optimize.out: Frame 1 / 54, Energy=    -286.6258382465
C        1.4197314878    0.3677800696   -0.1762428001
C        0.8015988940   -1.0200995042   -0.3010849621
C       -0.6213297210   -1.0935425267   -0.4768666113
C       -1.2077537047    0.2170714271   -0.1987217551
C       -0.4493300580    1.5410532657   -0.3287115406
N        0.8618003040    1.6206654419   -0.6052704821
H        2.4858775111    0.3490782090    0.0563083976
H        1.3836384925   -1.8909384894   -0.0011039841
H       -1.1734268789   -2.0229025812   -0.3806116374
H       -2.2274541615    0.2704669575    0.1877207136
H       -1.0491928689    2.4460672916   -0.2130795357
C        0.0330810144   -0.0370009600    0.8265571648
H       -0.2572403108   -0.7476986010    1.6111070327
13   
From optimize.out: Frame 4 / 54, Energy=    -286.6976593611
C        1.3838294518    0.3650198751   -0.1538828327
C        0.8061711136   -1.0176838389   -0.3110812785
C       -0.6117452390   -1.0646885682   -0.4763078944
C       -1.1727318076    0.2430813964   -0.1849845565
C       -0.4620963771    1.5518175761   -0.3720133480
N        0.8376501128    1.5878691397   -0.5944289373
H        2.4415882164    0.3564578928    0.0956902458
H        1.3871025864   -1.8881832510   -0.0344623674
H       -1.1736497448   -1.9864191658   -0.3818074966
H       -2.1858471079    0.3031967661    0.1962409379
H       -1.0542647476    2.4619869763   -0.2951988492
C        0.0408472234   -0.0967406049    0.8581209052
H       -0.2368536803   -0.8157141938    1.6541154718
13   
From optimize.out: Frame 7 / 54, Energy=    -286.7454472360
C        1.3517824059    0.3631930639   -0.1272396961
C        0.8103723062   -1.0157183888   -0.3269586842
C       -0.6073505928   -1.0419274001   -0.4789113452
C       -1.1458597674    0.2710607802   -0.1626887508
C       -0.4766992027    1.5618526807   -0.4194729100
N        0.8250591822    1.5659967563   -0.5898278664
H        2.3992276915    0.3631267877    0.1558505220
H        1.3921163356   -1.8886742563   -0.0732689158
H       -1.1778516257   -1.9570600842   -0.3792310521
H       -2.1536621573    0.3315962045    0.2245344643
H       -1.0576463985    2.4790204555   -0.3857966659
C        0.0486923761   -0.1562665817    0.8794623278
H       -0.2081805533   -0.8762000176    1.6835485725
13   
From optimize.out: Frame 9 / 54, Energy=    -286.7658450263
C        1.3255165647    0.3637925945   -0.0970305245
C        0.8133525629   -1.0127576198   -0.3483333753
C       -0.6086634878   -1.0232466702   -0.4822225382
C       -1.1267605801    0.2964385294   -0.1328187215
C       -0.4887426465    1.5690574442   -0.4676336528
N        0.8206099099    1.5542830340   -0.5876104253
H        2.3602278200    0.3699873131    0.2292791218
H        1.3967918198   -1.8905213460   -0.1185278621
H       -1.1863615940   -1.9328696509   -0.3720832414
H       -2.1305118232    0.3508086414    0.2660213272
H       -1.0556761112    2.4938820234   -0.4820138911
C        0.0547118605   -0.2122226306    0.8909906783
H       -0.1744942952   -0.9266316625    1.7019831049
13   
From optimize.out: Frame 12 / 54, Energy=    -286.7832204408
C        1.3037420273    0.3658200500   -0.0623262209
C        0.8149574068   -1.0077502747   -0.3748751786
C       -0.6158669839   -1.0082106548   -0.4870007233
C       -1.1133013511    0.3180767943   -0.0970159190
C       -0.4966566831    1.5711938366   -0.5134263678
N        0.8204468663    1.5502327030   -0.5827265393
H        2.3231382311    0.3754785575    0.3106637870
H        1.4001415337   -1.8913796884   -0.1692085666
H       -1.1984824072   -1.9134633550   -0.3625293991
H       -2.1139540739    0.3631393298    0.3142301165
H       -1.0489909008    2.5021134466   -0.5803785064
C        0.0596449939   -0.2616570858    0.8915968905
H       -0.1348186592   -0.9635936591    1.7129966270
13   
From optimize.out: Frame 17 / 54, Energy=    -286.7954280550
C        1.2830384496    0.3674077225   -0.0208081609
C        0.8153494491   -1.0007244344   -0.4085177720
C       -0.6285685612   -0.9976104987   -0.4966175791
C       -1.1034371133    0.3357203219   -0.0575313056
C       -0.4996825772    1.5676014427   -0.5522076301
N        0.8215208843    1.5524068754   -0.5693744092
H        2.2858695997    0.3761490587    0.3958157718
H        1.4013425634   -1.8901387504   -0.2240803950
H       -1.2121766414   -1.8999222932   -0.3516060544
H       -2.1023542645    0.3713871801    0.3625097349
H       -1.0396590921    2.5002823162   -0.6772468251
C        0.0649691590   -0.3021415258    0.8790379382
H       -0.0862118554   -0.9804174151    1.7206266864
13   
From optimize.out: Frame 19 / 54, Energy=    -286.7988145477
C        1.2598290903    0.3656030070    0.0289663540
C        0.8162764914   -0.9935846022   -0.4543159661
C       -0.6458323220   -0.9937973931   -0.5192942028
C       -1.0965034371    0.3466943281   -0.0168414801
C       -0.4963675304    1.5604068628   -0.5739636820
N        0.8214073000    1.5604418576   -0.5438091614
H        2.2484775106    0.3685626625    0.4785191168
H        1.4013016963   -1.8873350309   -0.2792401148
H       -1.2243672494   -1.8940576455   -0.3384174401
H       -2.0955314587    0.3724315336    0.4062976735
H       -1.0286980436    2.4871377214   -0.7660370985
C        0.0710979561   -0.3295544914    0.8506025630
H       -0.0310900034   -0.9629488100    1.7275334384
13   
From optimize.out: Frame 22 / 54, Energy=    -286.8058903835
C        1.2383542587    0.3575377290    0.0789811089
C        0.8199283364   -0.9882890101   -0.5097710508
C       -0.6666583010   -0.9962955730   -0.5725585553
C       -1.0915182466    0.3437696794    0.0278567204
C       -0.4873757284    1.5520219779   -0.5654446875
N        0.8172922850    1.5713056392   -0.5114150968
H        2.2194159014    0.3539548843    0.5443562044
H        1.4013814497   -1.8835185285   -0.3212363706
H       -1.2315260485   -1.8934744175   -0.3310126577
H       -2.0920380788    0.3574167033    0.4487451867
H       -1.0161929158    2.4617353344   -0.8383412763
C        0.0748993479   -0.3362035224    0.8130598021
H        0.0140377402   -0.8999608961    1.7367806726
13   
From optimize.out: Frame 24 / 54, Energy=    -286.8122152753
C        1.2341164578    0.3459093144    0.1138867028
C        0.8151411401   -0.9852128830   -0.5335184821
C       -0.6933861448   -0.9926700126   -0.6750412566
C       -1.0853720271    0.3240726938    0.0754969905
C       -0.4801118142    1.5407142386   -0.5288844106
N        0.8080704293    1.5774856966   -0.4944414155
H        2.2192994065    0.3393346555    0.5690068185
H        1.3898292277   -1.8812916031   -0.3227980392
H       -1.2334088980   -1.8869895426   -0.3606998267
H       -2.0883705279    0.3269621029    0.4896170973
H       -1.0130130361    2.4216779144   -0.8816754579
C        0.0808267449   -0.3164230162    0.7934003148
H        0.0463790417   -0.8135695587    1.7556509647
13   
From optimize.out: Frame 27 / 54, Energy=    -286.8279793287
C        1.2530767832    0.3362619096    0.1266717428
C        0.7937061764   -0.9837467168   -0.5130421033
C       -0.7181917228   -0.9994696527   -0.7786537443
C       -1.0814517148    0.2983531724    0.0932602377
C       -0.4730954517    1.5328433413   -0.4866481021
N        0.8028946724    1.5847433554   -0.4978000349
H        2.2515253380    0.3267291933    0.5507038213
H        1.3623313507   -1.8826041002   -0.2926498935
H       -1.2376056258   -1.8939624931   -0.4211654011
H       -2.0879207353    0.3000253526    0.4999781304
H       -1.0345018097    2.3873095832   -0.8641178320
C        0.0972810696   -0.2751678798    0.7999249748
H        0.0719516698   -0.7313150652    1.7835382041
13   
From optimize.out: Frame 29 / 54, Energy=    -286.8332659898
C        1.2720947402    0.3294535642    0.1263343834
C        0.7616867001   -0.9892560466   -0.4558898467
C       -0.7182087941   -0.9974302034   -0.8397789669
C       -1.0765159132    0.2751284977    0.0913600825
C       -0.4756510701    1.5390040743   -0.4509886730
N        0.8020180532    1.5915759322   -0.5039608835
H        2.2889604894    0.3204705313    0.5060980665
H        1.3302695910   -1.8971046843   -0.2640188849
H       -1.2429341650   -1.9017888311   -0.5195645127
H       -2.0870262099    0.2871629859    0.4976449085
H       -1.0671136288    2.3643111566   -0.8503740422
C        0.1195573912   -0.2410915238    0.8376782422
H        0.0928628158   -0.6804354531    1.8254601267
13   
From optimize.out: Frame 34 / 54, Energy=    -286.8355659623
C        1.2686468921    0.3288117250    0.1321960794
C        0.7236562938   -0.9928776600   -0.3885783819
C       -0.7015507649   -0.9595516352   -0.8564084105
C       -1.0624073610    0.2548273974    0.0969344812
C       -0.4819791582    1.5374725897   -0.4531765199
N        0.8024713770    1.5830122799   -0.5115981680
H        2.2976933969    0.3264515707    0.4805087043
H        1.3015053024   -1.9072158888   -0.2646259482
H       -1.2538885102   -1.8725251227   -0.6360359711
H       -2.0767008740    0.2808293131    0.5025784195
H       -1.0832960662    2.3391296840   -0.8843333498
C        0.1426345628   -0.2413365838    0.8982226065
H        0.1232149096   -0.6770276694    1.8843164586
13   
From optimize.out: Frame 37 / 54, Energy=    -286.8356721149
C        1.2584046940    0.3345343752    0.1449594304
C        0.6983852876   -0.9971717421   -0.3352783202
C       -0.6902794417   -0.9176178848   -0.8560970059
C       -1.0499318791    0.2407483649    0.1133925554
C       -0.4837542678    1.5201089785   -0.4727298569
N        0.7978491495    1.5603674092   -0.5183285904
H        2.2909103560    0.3377455567    0.4808394719
H        1.2957988521   -1.9037577633   -0.2872981258
H       -1.2786405740   -1.8270774480   -0.7512281240
H       -2.0637510578    0.2782065603    0.5168478435
H       -1.0839454544    2.3042360373   -0.9336935557
C        0.1563300940   -0.2553547422    0.9510276960
H        0.1526242416   -0.6749677017    1.9475865817
13   
From optimize.out: Frame 39 / 54, Energy=    -286.8357630750
C        1.2506543286    0.3384053244    0.1570408872
C        0.6815357254   -1.0116409134   -0.2872896502
C       -0.6824378545   -0.8938366678   -0.8520399835
C       -1.0457593132    0.2311512664    0.1325355897
C       -0.4859462537    1.5017833757   -0.4864738154
N        0.7922708537    1.5366886362   -0.5233122735
H        2.2834798560    0.3383013632    0.4887726341
H        1.3091885945   -1.8960008512   -0.3126121548
H       -1.3039304288   -1.7846258271   -0.8803827817
H       -2.0567479631    0.2765576624    0.5369458312
H       -1.0886361893    2.2679958409   -0.9714008966
C        0.1637905353   -0.2657874375    0.9895075115
H        0.1825381093   -0.6389917722    2.0087091021
13   
From optimize.out: Frame 42 / 54, Energy=    -286.8365782394
C        1.2463760084    0.3384144544    0.1651683054
C        0.6692338384   -1.0360061470   -0.2492476228
C       -0.6771206465   -0.8918537647   -0.8396602757
C       -1.0475616021    0.2244287819    0.1531924757
C       -0.4897672623    1.4872158897   -0.4895094325
N        0.7885348494    1.5225086087   -0.5267327175
H        2.2799355758    0.3297766095    0.4946995480
H        1.3290049174   -1.8938857628   -0.3220826904
H       -1.3245232956   -1.7428491438   -1.0166584852
H       -2.0569537964    0.2646514775    0.5610809785
H       -1.0988706782    2.2362423481   -0.9924359865
C        0.1700829747   -0.2701930081    1.0086572743
H        0.2116291170   -0.5684503435    2.0535286289
13   
From optimize.out: Frame 44 / 54, Energy=    -286.8375223389
C        1.2504392140    0.3396885198    0.1641152010
C        0.6613242040   -1.0554204374   -0.2229796263
C       -0.6769842393   -0.9036696724   -0.8055227069
C       -1.0453273845    0.2169043774    0.1748991504
C       -0.4984023975    1.4744884087   -0.4873583113
N        0.7814549013    1.5152118796   -0.5388984411
H        2.2905944728    0.3325748247    0.4734657880
H        1.3227369200   -1.9137433830   -0.2822164748
H       -1.3277960209   -1.6888032259   -1.1596458675
H       -2.0522170885    0.2484473589    0.5924661414
H       -1.1142076693    2.2093611085   -1.0035075524
C        0.1872725801   -0.2571059403    1.0205938779
H        0.2211125078   -0.5179338186    2.0745888216
13   
From optimize.out: Frame 48 / 54, Energy=    -286.8382224568
C        1.2502543816    0.3436839078    0.1669307562
C        0.6498680501   -1.0703532368   -0.1938745782
C       -0.6884187321   -0.9210222577   -0.7653085871
C       -1.0479792959    0.2058066589    0.1957831489
C       -0.5057084957    1.4543821642   -0.4973147807
N        0.7740278750    1.4989111884   -0.5528564564
H        2.2949323929    0.3342611151    0.4608635402
H        1.3181546301   -1.9231075638   -0.2545920505
H       -1.3116698497   -1.6183013821   -1.2989231376
H       -2.0479722697    0.2579149066    0.6290241606
H       -1.1262041806    2.1762695099   -1.0258382248
C        0.1990108929   -0.2465434418    1.0393468587
H        0.2417046013   -0.4919015689    2.0967593507
13   
From optimize.out: Frame 53 / 54, Energy=    -286.8383313550
C        1.2490910722    0.3443872478    0.1666735963
C        0.6371527247   -1.0878071886   -0.1655685872
C       -0.7026122942   -0.9478744784   -0.7198380637
C       -1.0503949817    0.1977908066    0.2154771349
C       -0.5140974031    1.4348957226   -0.5052612716
N        0.7659148787    1.4811979913   -0.5699252762
H        2.2982410449    0.3342837133    0.4443983286
H        1.3129854765   -1.9345716448   -0.2263821934
H       -1.2781756495   -1.5257585237   -1.4226582529
H       -2.0459095074    0.2637287761    0.6584085022
H       -1.1395191447    2.1456772715   -1.0429968980
C        0.2088004025   -0.2374057771    1.0537877251
H        0.2585233811   -0.4685439165    2.1138852558
13   
From optimize.out: Frame 1 / 3, Energy=    -286.8383128750
C        1.2466600617    0.3414423195    0.1639756466
C        0.6239284755   -1.1059487536   -0.1387017380
C       -0.7200684768   -0.9807187802   -0.6761626879
C       -1.0520759183    0.1922680526    0.2326888589
C       -0.5236874579    1.4165499323   -0.5121118536
N        0.7563251887    1.4627135888   -0.5886876064
H        2.2999007859    0.3307520758    0.4255330327
H        1.3069853916   -1.9471185584   -0.1976765963
H       -1.2271818679   -1.4158446395   -1.5280580533
H       -2.0438768399    0.2673251842    0.6835464740
H       -1.1544230277    2.1180773265   -1.0558507217
C        0.2150507873   -0.2312777376    1.0644609721
H        0.2724628979   -0.4482200103    2.1270442730
13   
From optimize.out: Frame 2 / 3, Energy=    -286.8383166369
C        1.2425381889    0.3277067981    0.1556931888
C        0.6185841314   -1.1159574044   -0.1200185899
C       -0.7301473301   -1.0005102675   -0.6579204265
C       -1.0530701161    0.1890328593    0.2437334282
C       -0.5328981012    1.4036383952   -0.5154230618
N        0.7466367192    1.4463055258   -0.6061543810
H        2.2974935004    0.3227267799    0.4101118343
H        1.2981713623   -1.9610977736   -0.1679564784
H       -1.1741498152   -1.3199322085   -1.5978683366
H       -2.0430188986    0.2589434978    0.6999742199
H       -1.1685166811    2.1036960416   -1.0553544173
C        0.2142445099   -0.2292037454    1.0727384849
H        0.2841325299   -0.4253484982    2.1384445353
