13   
From optimize.out: Frame 35 / 36, Energy=    -286.8584590534
C        1.5366063709    0.4306394942   -0.3797269952
C        0.8434483317   -0.7968071007    0.0803704746
C       -0.5858167304   -1.0277566174   -0.3817094348
C       -1.1173886402    0.3114209015    0.1006779158
C       -0.4274396037    1.5421362482   -0.3551205131
N        0.8839183098    1.5727556656   -0.5858436800
H        2.6088040851    0.4182818606   -0.5653988334
H        1.4549523775   -1.6858761573    0.2258393024
H       -1.0688158931   -1.8723541415   -0.8530182914
H       -2.1917641923    0.3765177470    0.2642255122
H       -0.9903480078    2.4599444081   -0.5140737588
C       -0.3511969638   -0.6397158460    1.0056778007
H       -0.5949594442   -1.0891864617    1.9581005007
13   
From optimize.out: Frame 32 / 36, Energy=    -286.8584272614
C        1.5405621803    0.4288826108   -0.3863893792
C        0.8514205387   -0.7967625681    0.0859914720
C       -0.5830480572   -1.0139144235   -0.3842219156
C       -1.1180500307    0.3249029660    0.1281749277
C       -0.4280916314    1.5440211947   -0.3553471921
N        0.8846398709    1.5717708002   -0.5785841579
H        2.6157623435    0.4311867751   -0.5519165659
H        1.4550705174   -1.6924789772    0.2165360994
H       -1.0774722036   -1.8700442113   -0.8188546471
H       -2.1928219014    0.3858551629    0.2866477842
H       -0.9962046886    2.4485453937   -0.5608818317
C       -0.3384667895   -0.6241170886    1.0060453161
H       -0.6133001487   -1.1378476347    1.9128000900
13   
From optimize.out: Frame 30 / 36, Energy=    -286.8582793221
C        1.5465890360    0.4302344228   -0.3982209336
C        0.8490975577   -0.7960936872    0.0691665886
C       -0.5807822338   -0.9910350681   -0.3842025811
C       -1.1115036549    0.3317896871    0.1449868197
C       -0.4324737404    1.5383265257   -0.3912714294
N        0.8811372208    1.5640709654   -0.6118428569
H        2.6302729400    0.4635728434   -0.4839005451
H        1.4524042470   -1.6938182636    0.1891142898
H       -1.0966917836   -1.8708358425   -0.7378209606
H       -2.1822484317    0.4005341403    0.3255178047
H       -0.9940425327    2.4482403826   -0.5886189731
C       -0.3104501528   -0.6034681926    1.0272162241
H       -0.6513084715   -1.2215179132    1.8398765528
13   
From optimize.out: Frame 27 / 36, Energy=    -286.8568730234
C        1.5414046913    0.4334333497   -0.3979174619
C        0.8337443507   -0.8068104477    0.0238243293
C       -0.5848272654   -0.9822155299   -0.3891926967
C       -1.1003756570    0.3239048778    0.1274627948
C       -0.4371329458    1.5370014957   -0.4286677270
N        0.8743366716    1.5567215042   -0.6556633356
H        2.6274463308    0.4925268081   -0.3862512058
H        1.4500805160   -1.6939966729    0.1585610138
H       -1.1221719745   -1.8814941541   -0.6509504908
H       -2.1638424442    0.4094552628    0.3446108501
H       -0.9834791276    2.4645410800   -0.5821629202
C       -0.2809538615   -0.5782586176    1.0507986129
H       -0.6542292845   -1.2748089561    1.7855482370
13   
From optimize.out: Frame 25 / 36, Energy=    -286.8553109162
C        1.5260328909    0.4370253018   -0.3796038093
C        0.8256189171   -0.8331030731   -0.0495345550
C       -0.5843901892   -0.9845238977   -0.3860361444
C       -1.0948041534    0.3106111463    0.0832741642
C       -0.4413355013    1.5438692226   -0.4436971256
N        0.8665072628    1.5565917079   -0.6721328331
H        2.6091580159    0.4997508926   -0.2980501429
H        1.4522584050   -1.7088110703    0.1045090190
H       -1.1351184551   -1.8976413659   -0.5617877906
H       -2.1524112666    0.4040255845    0.3264134019
H       -0.9749048624    2.4849068496   -0.5583276890
C       -0.2565261822   -0.5336910410    1.0733384612
H       -0.6400848814   -1.2790102573    1.7616350436
13   
From optimize.out: Frame 22 / 36, Energy=    -286.8518309075
C        1.5086872867    0.4342900014   -0.3484650463
C        0.8273428027   -0.8587881200   -0.1250857464
C       -0.5783792884   -0.9894385119   -0.3804625402
C       -1.1011809091    0.2967515608    0.0358599088
C       -0.4431552734    1.5492768706   -0.4395694262
N        0.8617644960    1.5588055868   -0.6562933429
H        2.5901062704    0.4864992849   -0.2366841652
H        1.4557688294   -1.7325969736    0.0278420458
H       -1.1327224814   -1.9119613085   -0.4892773022
H       -2.1564828920    0.3857072403    0.2883471328
H       -0.9736731995    2.4952426661   -0.5337060087
C       -0.2328913172   -0.4714720992    1.0946760895
H       -0.6251843243   -1.2423161980    1.7628184014
13   
From optimize.out: Frame 20 / 36, Energy=    -286.8477317970
C        1.4884912185    0.4251291283   -0.3129492825
C        0.8264255178   -0.8834119332   -0.1836179428
C       -0.5733686231   -0.9941299689   -0.3825581974
C       -1.1158324038    0.2825654133   -0.0132246756
C       -0.4448133634    1.5501956429   -0.4247840387
N        0.8589477078    1.5570631729   -0.6300956092
H        2.5702839366    0.4644055854   -0.1901792630
H        1.4545810936   -1.7583861902   -0.0392440788
H       -1.1287138404   -1.9219779268   -0.4429083487
H       -2.1705209354    0.3610930486    0.2417187870
H       -0.9772920477    2.4975515351   -0.5024324510
C       -0.1954500532   -0.3952842193    1.1084600448
H       -0.5927382075   -1.1848132881    1.7718150559
13   
From optimize.out: Frame 17 / 36, Energy=    -286.8356235109
C        1.4674207679    0.4137897862   -0.2791335088
C        0.8212948660   -0.9096721351   -0.2228983639
C       -0.5720195330   -1.0010616503   -0.3887898881
C       -1.1328148334    0.2687296945   -0.0611554913
C       -0.4473408273    1.5480517097   -0.4026404734
N        0.8569142413    1.5535518411   -0.6032936907
H        2.5504740030    0.4412746045   -0.1527668294
H        1.4467178935   -1.7868470034   -0.0832153272
H       -1.1282806146   -1.9317573953   -0.4162082079
H       -2.1880850107    0.3378197646    0.1913295142
H       -0.9860213700    2.4940514991   -0.4612628445
C       -0.1456916701   -0.3114416737    1.1062847059
H       -0.5425679126   -1.1164890418    1.7737504051
13   
From optimize.out: Frame 15 / 36, Energy=    -286.8228066765
C        1.4488038668    0.4025872018   -0.2490895915
C        0.8141605111   -0.9374751532   -0.2470657614
C       -0.5741177555   -1.0124680545   -0.3951826500
C       -1.1496533900    0.2541101936   -0.1015536386
C       -0.4496747105    1.5444500237   -0.3763316004
N        0.8558221667    1.5523113610   -0.5805789322
H        2.5327705560    0.4202384176   -0.1208880027
H        1.4338849786   -1.8178592671   -0.1053780289
H       -1.1306053022   -1.9451406455   -0.4002798939
H       -2.2058154491    0.3166380187    0.1467180206
H       -0.9980994052    2.4865603485   -0.4121346776
C       -0.0923507661   -0.2237084303    1.0838139460
H       -0.4851253007   -1.0402440144    1.7579508106
13   
From optimize.out: Frame 12 / 36, Energy=    -286.7961341248
C        1.4358213216    0.3917264729   -0.2237860522
C        0.8072992669   -0.9647565112   -0.2605212114
C       -0.5790181620   -1.0289237298   -0.4002192850
C       -1.1674202714    0.2379987506   -0.1315991878
C       -0.4502426306    1.5397469711   -0.3481322942
N        0.8559347201    1.5577995673   -0.5642383593
H        2.5194089088    0.4011493538   -0.0931741293
H        1.4188999160   -1.8490536278   -0.1108104580
H       -1.1341045196   -1.9634492776   -0.3886089398
H       -2.2238167331    0.2948863690    0.1147332784
H       -1.0099904112    2.4761866313   -0.3576308718
C       -0.0427825930   -0.1354944495    1.0434162420
H       -0.4299888126   -0.9578165199    1.7205712686
13   
From optimize.out: Frame 10 / 36, Energy=    -286.7721999950
C        1.4318653743    0.3803489685   -0.2049410380
C        0.8021206310   -0.9876098620   -0.2656519632
C       -0.5866330592   -1.0491805751   -0.4028123619
C       -1.1883206724    0.2213416686   -0.1535055047
C       -0.4490359301    1.5318917513   -0.3178943574
N        0.8577211748    1.5721563740   -0.5540518547
H        2.5137857761    0.3818400622   -0.0720337271
H        1.4048263688   -1.8755603332   -0.1039270194
H       -1.1382898988   -1.9851999615   -0.3767844009
H       -2.2442420643    0.2719167533    0.0941408902
H       -1.0196241494    2.4613328257   -0.2977595497
C       -0.0008785657   -0.0509859103    0.9914285228
H       -0.3832949850   -0.8722917615    1.6637923641
13   
From optimize.out: Frame 7 / 36, Energy=    -286.7254775872
C        1.4401604692    0.3695125905   -0.1954676974
C        0.7992843237   -1.0018364727   -0.2623805290
C       -0.5977776558   -1.0710306668   -0.4015739754
C       -1.2144181294    0.2063442345   -0.1703330408
C       -0.4481198084    1.5180202710   -0.2851373481
N        0.8641853210    1.5913709487   -0.5479869435
H        2.5200168104    0.3626943125   -0.0624450854
H        1.3936881120   -1.8921304345   -0.0845784512
H       -1.1443170306   -2.0073334659   -0.3610023198
H       -2.2696390617    0.2503621194    0.0806956868
H       -1.0268771355    2.4391820892   -0.2315680652
C        0.0323214794    0.0242912377    0.9315451944
H       -0.3485076944   -0.7894467635    1.5902325746
13   
From optimize.out: Frame 5 / 36, Energy=    -286.6875154658
C        1.4606159702    0.3601042964   -0.1944900301
C        0.8006842796   -1.0091885521   -0.2514126357
C       -0.6128527183   -1.0953825625   -0.3939652226
C       -1.2445751381    0.1967167094   -0.1803664633
C       -0.4517343006    1.5034080646   -0.2544845835
N        0.8761702652    1.6095354451   -0.5404024977
H        2.5381201065    0.3463131147   -0.0639279521
H        1.3886592198   -1.8992903205   -0.0541404374
H       -1.1536285400   -2.0298165918   -0.3367749747
H       -2.2992914116    0.2354317008    0.0753562785
H       -1.0341020705    2.4149894190   -0.1673776271
C        0.0570333724    0.0850831895    0.8643976200
H       -0.3250990344   -0.7179039125    1.4975885257
13   
From optimize.out: Frame 2 / 36, Energy=    -286.6199130037
C        1.4803745535    0.3535408490   -0.1986167260
C        0.8030800496   -1.0165007255   -0.2426914143
C       -0.6265742113   -1.1198769383   -0.3890232884
C       -1.2654866987    0.1929392545   -0.1838232452
C       -0.4587187623    1.5021689651   -0.2417654107
N        0.8858023162    1.6273182287   -0.5293809732
H        2.5568676389    0.3326927126   -0.0610529430
H        1.3890537545   -1.9041408981   -0.0188904949
H       -1.1626376925   -2.0512620403   -0.3140858933
H       -2.3200342240    0.2310265472    0.0898185231
H       -1.0451636543    2.4043623837   -0.1264774267
C        0.0678910336    0.1138381680    0.8065542275
H       -0.3044541033   -0.6661065066    1.4094350651
13   
C5H5N+CH->C6H6N atoms 1-13 frame 74 charge +0.000 sz -1.000 sz^2 0.727
C        1.4744012078    0.3636503480   -0.2007001224
C        0.8015390912   -1.0266532689   -0.2706594052
C       -0.6382621299   -1.1388430344   -0.4476361898
C       -1.2633001288    0.1925650228   -0.2010165520
C       -0.4481228712    1.5232752161   -0.2680894712
N        0.8962797905    1.6637817006   -0.5918150856
H        2.5549732871    0.3356844299   -0.0035944009
H        1.3915316068   -1.9057208833    0.0326792973
H       -1.1773441793   -2.0750843884   -0.3520702925
H       -2.3064275066    0.2380142807    0.1664743165
H       -1.0491982334    2.4248649123   -0.1160669309
C        0.0428109265    0.0618361476    0.7791203252
H       -0.2788808607   -0.6573704831    1.4733745115
13   
C5H5N+CH->C6H6N atoms 1-13 frame 77 charge +0.000 sz -1.000 sz^2 0.521
C        1.4534519311    0.3689544587   -0.1935180943
C        0.7998443478   -1.0253331941   -0.2928577622
C       -0.6348293835   -1.1268943916   -0.4795861669
C       -1.2432073420    0.1991470459   -0.2069282722
C       -0.4428257885    1.5340493873   -0.2956086190
N        0.8885102655    1.6584784078   -0.6179893318
H        2.5274586017    0.3416900446    0.0346662344
H        1.3855630588   -1.8972574128    0.0320988794
H       -1.1785657891   -2.0626480854   -0.3774374631
H       -2.2706508828    0.2473854134    0.1941097386
H       -1.0478662547    2.4352662357   -0.1447581455
C        0.0298218204    0.0133638805    0.7894576430
H       -0.2667045846   -0.6862017900    1.5583513596
13   
From optimize.out: Frame 1 / 54, Energy=    -286.6258382465
C        1.4169557696    0.3676974951   -0.1748831701
C        0.8017376020   -1.0196596822   -0.3018094547
C       -0.6202350337   -1.0908056788   -0.4766321289
C       -1.2048569130    0.2185345792   -0.1979927195
C       -0.4498899462    1.5416287986   -0.3313840604
N        0.8595707660    1.6175802856   -0.6042419522
H        2.4824675598    0.3497028088    0.0579790982
H        1.3834955283   -1.8904094151   -0.0039145730
H       -1.1730062346   -2.0196471855   -0.3808496448
H       -2.2239059053    0.2723393957    0.1872983903
H       -1.0493302330    2.4469478092   -0.2186006244
C        0.0333847794   -0.0411425676    0.8295973435
H       -0.2563877394   -0.7527666430    1.6154334960
13   
From optimize.out: Frame 4 / 54, Energy=    -286.6976593611
C        1.3811716717    0.3648158005   -0.1522524045
C        0.8065185723   -1.0175159412   -0.3118736907
C       -0.6110797511   -1.0625942671   -0.4762763792
C       -1.1701710111    0.2450418858   -0.1838923887
C       -0.4630959381    1.5526367745   -0.3752166012
N        0.8358643663    1.5855077866   -0.5936493450
H        2.4383204189    0.3570094210    0.0986144618
H        1.3873997205   -1.8879972127   -0.0369956219
H       -1.1737060906   -1.9837607661   -0.3818724035
H       -2.1827966333    0.3056497963    0.1970498789
H       -1.0546843725    2.4631896272   -0.3012388619
C        0.0414792343   -0.1012028470    0.8603989816
H       -0.2352201871   -0.8207800579    1.6572043742
13   
From optimize.out: Frame 7 / 54, Energy=    -286.7454472360
C        1.3494655798    0.3630726792   -0.1253140061
C        0.8106666218   -1.0155669715   -0.3281977611
C       -0.6070715494   -1.0402932609   -0.4791201390
C       -1.1439548891    0.2731068102   -0.1609732740
C       -0.4777892032    1.5625854567   -0.4228998117
N        0.8241829418    1.5644786415   -0.5895217540
H        2.3961581913    0.3636118981    0.1602717430
H        1.3924905758   -1.8887213647   -0.0762153709
H       -1.1781852367   -1.9549555806   -0.3790249992
H       -2.1513640326    0.3336244606    0.2267821011
H       -1.0579013139    2.4802707804   -0.3923504089
C        0.0492922422   -0.1606164440    0.8809559859
H       -0.2059899279   -0.8805971051    1.6856076948
13   
From optimize.out: Frame 9 / 54, Energy=    -286.7658450263
C        1.3236683721    0.3638528876   -0.0948851696
C        0.8135495909   -1.0125299283   -0.3499400006
C       -0.6088002928   -1.0219208398   -0.4824710753
C       -1.1254411671    0.2982375031   -0.1306049162
C       -0.4896039638    1.5695686504   -0.4710175396
N        0.8203130769    1.5535160533   -0.5874452246
H        2.3574675436    0.3704753343    0.2345271383
H        1.3971221427   -1.8906543640   -0.1218868990
H       -1.1870004852   -1.9311597935   -0.3715655691
H       -2.1288977224    0.3521210818    0.2691232602
H       -1.0555243616    2.4949426154   -0.4888127781
C        0.0551587519   -0.2162227465    0.8917555632
H       -0.1720114852   -0.9302264537    1.7032232103
13   
From optimize.out: Frame 12 / 54, Energy=    -286.7832204408
C        1.3022287139    0.3659721098   -0.0598817716
C        0.8150537934   -1.0073740435   -0.3768258201
C       -0.6164166090   -1.0071538548   -0.4873620958
C       -1.1123836039    0.3195843516   -0.0944246901
C       -0.4972073228    1.5713350692   -0.5165726836
N        0.8204392657    1.5500047567   -0.5823375591
H        2.3205433683    0.3758481613    0.3163840447
H        1.4003665892   -1.8914279629   -0.1729054636
H       -1.1993628234   -1.9121089358   -0.3618770227
H       -2.1128117307    0.3639627607    0.3177256238
H       -1.0485135120    2.5026773998   -0.5872040187
C        0.0600113253   -0.2651346171    0.8915738216
H       -0.1319474540   -0.9661851950    1.7137076354
13   
From optimize.out: Frame 14 / 54, Energy=    -286.7892968937
C        1.2816249784    0.3675145419   -0.0179492200
C        0.8153608329   -1.0002174495   -0.4109143981
C       -0.6294758992   -0.9968870590   -0.4973247807
C       -1.1027800131    0.3369104839   -0.0547723054
C       -0.4998794510    1.5673497714   -0.5547520896
N        0.8215854260    1.5526079117   -0.5683758306
H        2.2833269800    0.3761549481    0.4016203573
H        1.4014090050   -1.8900340652   -0.2279641455
H       -1.2131287650   -1.8990104937   -0.3508985884
H       -2.1015750357    0.3719180384    0.3658770848
H       -1.0390252633    2.5001343808   -0.6837436024
C        0.0653570342   -0.3049031579    0.8781005573
H       -0.0827998291   -0.9815378509    1.7210969613
13   
From optimize.out: Frame 17 / 54, Energy=    -286.7954280550
C        1.2583662564    0.3654744362    0.0321040088
C        0.8163282465   -0.9931165348   -0.4572968111
C       -0.6469415720   -0.9935654052   -0.5208020557
C       -1.0960828121    0.3473508980   -0.0142526692
C       -0.4961466745    1.5599681473   -0.5751660970
N        0.8213811411    1.5609948672   -0.5421035985
H        2.2461489125    0.3680318604    0.4836465252
H        1.4012897159   -1.8871389777   -0.2828066027
H       -1.2251278580   -1.8937099017   -0.3376426957
H       -2.0951165838    0.3724443382    0.4090782749
H       -1.0280250296    2.4863014541   -0.7714168286
C        0.0715035894   -0.3312504952    0.8487389636
H       -0.0275773319   -0.9617846868    1.7279195862
13   
From optimize.out: Frame 19 / 54, Energy=    -286.7988145477
C        1.2373183014    0.3571259307    0.0814017909
C        0.8201067443   -0.9880097104   -0.5125588717
C       -0.6676890274   -0.9964086625   -0.5752778993
C       -1.0912821822    0.3435796010    0.0300794298
C       -0.4869378501    1.5516388149   -0.5648488263
N        0.8170651165    1.5718690281   -0.5097599552
H        2.2180417343    0.3532032375    0.5474722903
H        1.4013846797   -1.8833100594   -0.3233563277
H       -1.2318591819   -1.8934482407   -0.3307428439
H       -2.0918700480    0.3566086576    0.4508634428
H       -1.0156048584    2.4605041720   -0.8416564122
C        0.0750935550   -0.3365027686    0.8111922716
H        0.0162330167   -0.8968500000    1.7371919109
13   
From optimize.out: Frame 22 / 54, Energy=    -286.8058903835
C        1.2340231182    0.3455790404    0.1148341420
C        0.8149882635   -0.9850992901   -0.5342032597
C       -0.6941517946   -0.9925281877   -0.6780126223
C       -1.0851980461    0.3234900871    0.0768726447
C       -0.4799291293    1.5404181292   -0.5277365449
N        0.8077883045    1.5776801754   -0.4939261210
H        2.2193468749    0.3389072338    0.5696110260
H        1.3894909958   -1.8812092321   -0.3229084213
H       -1.2334535832   -1.8867864291   -0.3616527774
H       -2.0882587323    0.3260552535    0.4908180395
H       -1.0129663156    2.4205769482   -0.8827057656
C        0.0810135507   -0.3158731144    0.7928588585
H        0.0473064935   -0.8112106141    1.7561508015
13   
From optimize.out: Frame 24 / 54, Energy=    -286.8122152753
C        1.2531613496    0.3362221654    0.1267085941
C        0.7936060354   -0.9837130618   -0.5130136802
C       -0.7183102592   -0.9994683294   -0.7791221809
C       -1.0814346929    0.2982331218    0.0933716683
C       -0.4730856281    1.5328298830   -0.4863869503
N        0.8028526573    1.5848013349   -0.4977639786
H        2.2516776002    0.3266629746    0.5505816540
H        1.3622157001   -1.8825894471   -0.2926364897
H       -1.2376237023   -1.8939813398   -0.4214822855
H       -2.0879087998    0.2998773627    0.5000823495
H       -1.0346298025    2.3871979654   -0.8639024777
C        0.0973730322   -0.2750258811    0.7999409530
H        0.0721065099   -0.7310467485    1.7836228239
13   
From optimize.out: Frame 27 / 54, Energy=    -286.8279793287
C        1.2721972002    0.3294955078    0.1261275715
C        0.7630360396   -0.9891081980   -0.4583284464
C       -0.7188202183   -0.9987048981   -0.8391731116
C       -1.0770085192    0.2758420600    0.0912353249
C       -0.4754384330    1.5390288919   -0.4508895947
N        0.8019666698    1.5918590331   -0.5036537254
H        2.2886261699    0.3202716901    0.5070082946
H        1.3313324213   -1.8966995159   -0.2641666150
H       -1.2425949699   -1.9027485864   -0.5155438923
H       -2.0873650323    0.2873633387    0.4975653944
H       -1.0665421362    2.3651881586   -0.8491174375
C        0.1187538348   -0.2411531205    0.8355405030
H        0.0918569733   -0.6806343613    1.8233957345
13   
From optimize.out: Frame 29 / 54, Energy=    -286.8332659898
C        1.2694147475    0.3283827808    0.1312345491
C        0.7255536575   -0.9926045557   -0.3925688898
C       -0.7024170270   -0.9627033104   -0.8564248372
C       -1.0633689903    0.2558796103    0.0957798556
C       -0.4818683435    1.5387516831   -0.4516474266
N        0.8027839895    1.5846818149   -0.5110633498
H        2.2981972804    0.3255541224    0.4804812599
H        1.3020376300   -1.9074276169   -0.2630832184
H       -1.2520879333   -1.8758601613   -0.6276991491
H       -2.0776711565    0.2810091205    0.5016305446
H       -1.0833024448    2.3417042843   -0.8805415912
C        0.1416168963   -0.2403174558    0.8942583591
H        0.1211116941   -0.6770503163    1.8796438938
13   
From optimize.out: Frame 32 / 54, Energy=    -286.8353254772
C        1.2590347976    0.3341994645    0.1439694786
C        0.6997365640   -0.9960983233   -0.3391655569
C       -0.6909298975   -0.9196183480   -0.8563847898
C       -1.0503081474    0.2415189341    0.1119268746
C       -0.4836044124    1.5215895475   -0.4715176931
N        0.7982888363    1.5623129099   -0.5178876392
H        2.2915202250    0.3376152551    0.4801848841
H        1.2948164032   -1.9043762110   -0.2853203463
H       -1.2766382136   -1.8304145859   -0.7411342228
H       -2.0643502745    0.2782467713    0.5153457935
H       -1.0836403544    2.3071418834   -0.9305170592
C        0.1557452030   -0.2545326759    0.9478499089
H        0.1503292708   -0.6775846218    1.9426503676
13   
From optimize.out: Frame 34 / 54, Energy=    -286.8355659623
C        1.2511264964    0.3384108561    0.1562121915
C        0.6826616344   -1.0094645076   -0.2907783086
C       -0.6829418978   -0.8941261986   -0.8529136322
C       -1.0455467009    0.2317310494    0.1307711010
C       -0.4856817488    1.5031020620   -0.4860756800
N        0.7925468217    1.5380357934   -0.5230753730
H        2.2839605421    0.3391622220    0.4879164295
H        1.3071824646   -1.8964292531   -0.3113105685
H       -1.3019972130   -1.7881497103   -0.8685968666
H       -2.0566695275    0.2774666767    0.5349455391
H       -1.0878315277    2.2708544032   -0.9693516338
C        0.1633870975   -0.2652392441    0.9877333619
H        0.1798035591   -0.6453541491    2.0045234398
13   
From optimize.out: Frame 37 / 54, Energy=    -286.8356721149
C        1.2458399959    0.3383585799    0.1653806388
C        0.6700136132   -1.0337787728   -0.2520506398
C       -0.6774041685   -0.8906480236   -0.8432479081
C       -1.0479190919    0.2251337763    0.1508489628
C       -0.4888127283    1.4884236019   -0.4899960777
N        0.7892785349    1.5231077694   -0.5254180138
H        2.2786414819    0.3294543805    0.4971973906
H        1.3297319265   -1.8914644773   -0.3267481239
H       -1.3237848233   -1.7483819251   -1.0012050054
H       -2.0574608331    0.2670037796    0.5578765917
H       -1.0971538268    2.2390084449   -0.9914605397
C        0.1681164618   -0.2716868589    1.0075386522
H        0.2109134579   -0.5745302748    2.0512840722
13   
From optimize.out: Frame 39 / 54, Energy=    -286.8357630750
C        1.2504423581    0.3388682143    0.1634961974
C        0.6633451274   -1.0528179705   -0.2282663675
C       -0.6750122824   -0.9008627207   -0.8125557224
C       -1.0448450143    0.2189954341    0.1711272082
C       -0.4971362162    1.4781294304   -0.4854603107
N        0.7827597492    1.5181118540   -0.5364761329
H        2.2897880108    0.3322360965    0.4755786131
H        1.3235527836   -1.9121197898   -0.2872182998
H       -1.3301428946   -1.7007354000   -1.1341124781
H       -2.0530619350    0.2465856435    0.5856608816
H       -1.1121139485    2.2154056896   -0.9992606573
C        0.1851212370   -0.2590588785    1.0170699856
H        0.2173030251   -0.5227376028    2.0704170828
13   
From optimize.out: Frame 42 / 54, Energy=    -286.8365782394
C        1.2504227172    0.3434415996    0.1668865236
C        0.6521694282   -1.0671947943   -0.1991121956
C       -0.6859562665   -0.9163617830   -0.7736302967
C       -1.0475155046    0.2073535695    0.1921133891
C       -0.5042332954    1.4579827053   -0.4958029874
N        0.7754439372    1.5021216594   -0.5497957550
H        2.2942734892    0.3341463733    0.4637679339
H        1.3190817232   -1.9210429723   -0.2597670717
H       -1.3171461135   -1.6345426392   -1.2757008766
H       -2.0483538910    0.2567724423    0.6235192482
H       -1.1238531003    2.1819686542   -1.0225111312
C        0.1971124637   -0.2483307306    1.0365619073
H        0.2385544126   -0.4963140843    2.0934713119
13   
From optimize.out: Frame 44 / 54, Energy=    -286.8375223389
C        1.2494968744    0.3447978800    0.1670983683
C        0.6395936975   -1.0844550882   -0.1705364841
C       -0.6994443487   -0.9418503586   -0.7280958704
C       -1.0500534924    0.1988337193    0.2122705384
C       -0.5123818002    1.4382849315   -0.5039542344
N        0.7676153680    1.4846063479   -0.5664822778
H        2.2978910152    0.3348174121    0.4477860026
H        1.3140573020   -1.9322866951   -0.2316252842
H       -1.2871609612   -1.5455539365   -1.4029276057
H       -2.0462449210    0.2629154608    0.6537737583
H       -1.1368452639    2.1507963134   -1.0405235484
C        0.2075624959   -0.2386118227    1.0517859643
H        0.2559140344   -0.4722941638    2.1114306732
13   
From optimize.out: Frame 48 / 54, Energy=    -286.8382224568
C        1.2472798226    0.3425864681    0.1647606386
C        0.6263113384   -1.1027042085   -0.1435255202
C       -0.7167115050   -0.9746779215   -0.6830995170
C       -1.0519142410    0.1931071261    0.2297955258
C       -0.5217919851    1.4198174405   -0.5109927426
N        0.7582842619    1.4660741753   -0.5852036971
H        2.2998037409    0.3319511214    0.4292612999
H        1.3082617908   -1.9446954127   -0.2031771843
H       -1.2381736978   -1.4375955726   -1.5105351020
H       -2.0444032532    0.2672585882    0.6791193393
H       -1.1515170465    2.1229066710   -1.0538658873
C        0.2143512222   -0.2320828988    1.0626812151
H        0.2702195518   -0.4519455764    2.1247816321
13   
From optimize.out: Frame 50 / 54, Energy=    -286.8383128120
C        1.2439077698    0.3363890715    0.1604810687
C        0.6133815865   -1.1203195489   -0.1173581463
C       -0.7349483847   -1.0075007033   -0.6454180247
C       -1.0527923566    0.1885176771    0.2455466277
C       -0.5321327291    1.4020654502   -0.5170184813
N        0.7475954286    1.4478454294   -0.6041048938
H        2.3003326496    0.3254687827    0.4089650870
H        1.3013616009   -1.9578306303   -0.1733723033
H       -1.1784374522   -1.3193636791   -1.6057877088
H       -2.0415345608    0.2675558809    0.7032280015
H       -1.1673748157    2.0966711746   -1.0645613731
C        0.2181788218   -0.2277371484    1.0723418067
H        0.2824624418   -0.4317617565    2.1370583399
13   
From optimize.out: Frame 53 / 54, Energy=    -286.8383313550
C        1.2424488758    0.3285259729    0.1575187148
C        0.6190515943   -1.1148988496   -0.1206762406
C       -0.7309206360   -1.0002894522   -0.6569172640
C       -1.0521277764    0.1899608083    0.2443084245
C       -0.5326811183    1.4039059485   -0.5165028819
N        0.7470660897    1.4475081598   -0.6047495514
H        2.2979472879    0.3233810197    0.4108180784
H        1.2994698631   -1.9592438129   -0.1712622510
H       -1.1770907404   -1.3193984487   -1.5961661522
H       -2.0409918353    0.2600128364    0.7018722171
H       -1.1682313624    2.1008702017   -1.0605932589
C        0.2142271837   -0.2308103634    1.0736003463
H        0.2818325743   -0.4295240206    2.1387498190
