13   
From optimize.out: Frame 1 / 3, Energy=    -286.9243436157
C        1.6275208656    0.3388165904   -0.3025239701
C        1.1398763554   -0.9438103089   -0.4730325191
C       -0.2057285338   -1.4173079962   -0.2706573326
C       -1.2783643897   -0.6846921986    0.1422835657
C       -0.2472334035    1.6192674999    0.4206524854
N        1.0599169531    1.5054969870    0.0841605408
H        2.6905909706    0.4560962210   -0.5241435773
H        1.8676799238   -1.6816847037   -0.8031711638
H       -0.3721805494   -2.4736071504   -0.4726346800
H       -2.2289009435   -1.2046825637    0.2416831057
H       -0.5062034222    2.6402763480    0.7111212926
C       -1.2948735157    0.7191902312    0.4653743436
H       -2.2521003108    1.1266410446    0.7808879094
13   
From optimize.out: Frame 2 / 3, Energy=    -286.9243477216
C        1.6276639315    0.3392271855   -0.3027601267
C        1.1393237710   -0.9428352096   -0.4738965665
C       -0.2056741721   -1.4171572286   -0.2711846395
C       -1.2783094952   -0.6848475977    0.1421864018
C       -0.2471559984    1.6191039934    0.4195377458
N        1.0602970564    1.5047078549    0.0861278080
H        2.6912210000    0.4564990081   -0.5222194936
H        1.8652133641   -1.6818652093   -0.8043903605
H       -0.3710696079   -2.4737481844   -0.4722864989
H       -2.2282300129   -1.2058790824    0.2435343208
H       -0.5060666194    2.6396143676    0.7102013760
C       -1.2952218083    0.7195564842    0.4640634259
H       -2.2519914088    1.1276236189    0.7810866077
