13   
From optimize.out: Frame 1 / 2, Energy=    -286.9514648084
C        1.9264100456    0.3340818496   -0.3727057977
C        1.3269693829   -0.9246925741   -0.5166055722
C       -0.0208359135   -1.0632234355   -0.2329872462
C       -0.7678823564    0.0698097038    0.1958417708
C       -0.0354702396    1.2928704363    0.2996329075
N        1.2557163634    1.4288904970    0.0301808222
H        2.9839988904    0.4726357404   -0.5874733645
H        1.9189398658   -1.7743469665   -0.8450643887
H       -0.5165920460   -2.0258672424   -0.3324985516
H       -2.6950192372   -0.9139345666    0.4224397013
H       -0.5598352553    2.1927470441    0.6224316899
C       -2.1380218995    0.0131249498    0.4983231146
H       -2.6783776005    0.8979045641    0.8184849146
