13   
Frame   0 IRC: Energy =  -286.8593150000 ; +0.0000 kcal/mol
C        1.2055199906    0.3488166786    0.3411769499
C        0.6797069266   -1.0709552608   -0.1674127014
C       -0.6044272121   -0.9425576707   -0.8387662588
C       -1.0793073158    0.1407864185    0.1258666176
C       -0.5204173093    1.4438612671   -0.4347000209
N        0.7593282106    1.5290616517   -0.3536878875
H        2.2207200709    0.3438608088    0.7224565628
H        1.3939358862   -1.8852684604   -0.2221350669
H       -0.9681647933   -1.2528241498   -1.8135354013
H       -2.1184772156    0.1395229812    0.4596866737
H       -1.1100564687    2.1833691084   -0.9724580591
C        0.0959818986   -0.3292949192    1.0587742751
H        0.0456573308   -0.6483784533    2.0947343162
13   
Frame   1 IRC: Energy =  -286.8584612885 ; +0.5357 kcal/mol
C        1.2085765567    0.3551870241    0.3490384070
C        0.6953383077   -1.0486494519   -0.1935742112
C       -0.5880885287   -0.9180816522   -0.8623349999
C       -1.0758112947    0.1515406306    0.1052503627
C       -0.5086538286    1.4650573699   -0.4258124558
N        0.7706596926    1.5490684612   -0.3271871238
H        2.2164244707    0.3465618745    0.7495654550
H        1.4074774991   -1.8636948048   -0.2537165387
H       -1.0348665100   -1.3895322824   -1.7270159934
H       -2.1180193828    0.1454955073    0.4264856462
H       -1.0899363086    2.2160705748   -0.9558688805
C        0.0903453610   -0.3316617201    1.0444977825
H        0.0265539656   -0.6773615309    2.0706725502
13   
Frame   2 IRC: Energy =  -286.8574449388 ; +1.1735 kcal/mol
C        1.2079277321    0.3537205625    0.3571815332
C        0.7095573580   -1.0270318075   -0.2176244045
C       -0.5669876521   -0.8754395725   -0.9042353270
C       -1.0731584290    0.1610424503    0.0925677548
C       -0.4981586832    1.4797237068   -0.4175078747
N        0.7786004437    1.5618664992   -0.3040306674
H        2.2078843102    0.3379329502    0.7769651191
H        1.4214197763   -1.8408335945   -0.3007722836
H       -1.0850912760   -1.4961308662   -1.6209958372
H       -2.1188504638    0.1460928049    0.4018067444
H       -1.0729335776    2.2293501817   -0.9573076353
C        0.0806949927   -0.3392489792    1.0347700891
H        0.0090954687   -0.6910443356    2.0591827891
13   
Frame   3 IRC: Energy =  -286.8546560060 ; +2.9236 kcal/mol
C        1.1997232499    0.3360834541    0.3661128295
C        0.7265088089   -1.0131510465   -0.2415969097
C       -0.5703255890   -0.8887334112   -0.8729764868
C       -1.0765723370    0.1606184822    0.1010151259
C       -0.4872682387    1.4719772352   -0.4215595429
N        0.7894902117    1.5470392627   -0.3060509938
H        2.1908484864    0.3020557063    0.8036173690
H        1.4602878818   -1.7923062240   -0.4379559317
H       -1.0811201169   -1.5308949050   -1.5740370572
H       -2.1283987115    0.1529564896    0.3884109729
H       -1.0537680255    2.2258588366   -0.9635130531
C        0.0651218972   -0.3242473210    1.0617996774
H       -0.0345275174   -0.6472565588    2.0967340005
13   
Frame   4 IRC: Energy =  -286.8481224061 ; +7.0235 kcal/mol (Transition State)
C        1.1838843225    0.2929458729    0.3703491621
C        0.7662654394   -0.9952867240   -0.3402781561
C       -0.5544582312   -0.9189632712   -0.8329305415
C       -1.0745732379    0.1621485636    0.1089678980
C       -0.4823576394    1.4686443914   -0.4246350285
N        0.7961730462    1.5296005570   -0.3122420108
H        2.1780718346    0.2855841681    0.8062462286
H        1.4816848363   -1.7977638365   -0.5044748918
H       -1.0718039121   -1.5371206194   -1.5521231958
H       -2.1311549885    0.1500015234    0.3743772232
H       -1.0490350017    2.2280825162   -0.9589463584
C        0.0194175327   -0.2170012379    1.1385702031
H       -0.0621140008   -0.6508719035    2.1271194679
13   
Frame   5 IRC: Energy =  -286.8553874170 ; +2.4646 kcal/mol
C        1.1655499787    0.2457591840    0.3813137810
C        0.7936814563   -0.9957261381   -0.4399953444
C       -0.5220901191   -0.9437567612   -0.8052297401
C       -1.0694964198    0.1635133125    0.1181265591
C       -0.4790115839    1.4665077428   -0.4280638780
N        0.7968892104    1.5154874881   -0.3142933801
H        2.1687498283    0.2754529668    0.8053410591
H        1.4978880106   -1.8060926928   -0.5553692539
H       -1.0661195672   -1.5437024336   -1.5291421413
H       -2.1311819683    0.1479869454    0.3638654226
H       -1.0467112598    2.2306790076   -0.9551199309
C       -0.0282871524   -0.0916364519    1.2228673168
H       -0.0798604138   -0.6644721696    2.1356995302
13   
Frame   6 IRC: Energy =  -286.8666891891 ; -4.6274 kcal/mol
C        1.1463987489    0.2112595937    0.4027541321
C        0.8217951049   -1.0003463354   -0.4901538010
C       -0.4984363254   -0.9616913102   -0.7663649517
C       -1.0668190098    0.1688534059    0.1286337059
C       -0.4732464424    1.4609526940   -0.4413368171
N        0.7993701083    1.4980105567   -0.3186306681
H        2.1536601684    0.2577730504    0.8107714048
H        1.5261158412   -1.8079414878   -0.6476175810
H       -1.0620092212   -1.5576660875   -1.4814825981
H       -2.1340052184    0.1463552464    0.3447296534
H       -1.0419288446    2.2363438801   -0.9506669349
C       -0.0624945935    0.0295723822    1.2927459444
H       -0.1084003165   -0.6814755886    2.1166185113
13   
Frame   7 IRC: Energy =  -286.8716588864 ; -7.7459 kcal/mol
C        1.1450364171    0.2050372928    0.4193366911
C        0.8305944479   -1.0055777316   -0.4816714898
C       -0.4931720610   -0.9824058403   -0.7154524357
C       -1.0667185047    0.1753231842    0.1350013283
C       -0.4580721571    1.4536409342   -0.4573673830
N        0.8136971952    1.4855325463   -0.3275247947
H        2.1448694378    0.2439538080    0.8454838932
H        1.5542370817   -1.7480728213   -0.7900433271
H       -1.0680050255   -1.5972145021   -1.3986677120
H       -2.1406622108    0.1558475034    0.3222118512
H       -1.0244015107    2.2422216727   -0.9522249190
C       -0.0789134495    0.0565356372    1.3073792945
H       -0.1584896603   -0.6848216835    2.0935390029
13   
Frame   8 IRC: Energy =  -286.8735000000 ; -8.9012 kcal/mol
C        1.1432524990    0.1947299942    0.4326382813
C        0.8357387726   -0.9896863448   -0.4981579485
C       -0.4960093844   -0.9977441719   -0.6896159736
C       -1.0688829887    0.1736483464    0.1353348605
C       -0.4415611190    1.4484661358   -0.4620459009
N        0.8271947293    1.4802953375   -0.3140981871
H        2.1338530467    0.2251323239    0.8814135435
H        1.5758988479   -1.6609774462   -0.9180914003
H       -1.0816987220   -1.6592811055   -1.3178069999
H       -2.1437460672    0.1761021157    0.3128407691
H       -0.9923925316    2.2348034078   -0.9738090538
C       -0.0928447190    0.0586259801    1.3118325888
H       -0.1988023636   -0.6841145732    2.0995654210
