13   
From qcts2.out: Frame 3 / 3, Energy=    -286.8564679450
C        0.9107206687    0.1922934025    0.3293812588
C        1.1637796388   -1.1076232596   -0.3979573521
C        0.0537588061   -1.8200138024   -0.2923696531
C       -1.3280836740    0.8342353890    0.2742104657
C       -0.4973969192    1.6248470955   -0.6136444202
N        0.7649693406    1.3058478632   -0.6182957968
H        1.6606050134    0.4533884960    1.0887588344
H        2.0761744307   -1.3367641725   -0.9493216251
H       -0.3377349091   -2.7748592223   -0.6281578083
H       -2.3960574505    0.9505537921    0.4133133440
H       -0.8639296606    2.4290290904   -1.2489757444
C       -0.4967635316   -0.0956225796    0.8701381071
H       -0.7100417531   -0.6553120920    1.7729203900
