13   
From optimize.out: Frame 1 / 1, Energy=    -286.9243472835
C        1.5716783180    0.3989309435   -0.4775925785
C        1.2450735921   -0.9105411304   -0.1791091331
C       -0.0290881275   -1.4371880166    0.2393437652
C       -1.3727347365    0.6809606595    0.2509144424
C       -0.4441272494    1.6245769181   -0.1461701627
N        0.8658173121    1.5538657580   -0.4802257371
H        2.6109892053    0.5554258812   -0.7749337823
H        2.0544341133   -1.6304843322   -0.2739414599
H       -0.0620061770   -2.5095789697    0.4210025955
H       -2.3717034157    1.0600360688    0.4526484073
H       -0.8270440457    2.6455119117   -0.2102187527
C       -1.1823404522   -0.7359821613    0.4290109163
H       -2.0589483362   -1.2955335303    0.7492714800
13   
From optimize.out: Frame 1 / 2, Energy=    -286.8505497780
C        0.6483972425    0.0835953167    0.2973282899
C        1.0785925012   -1.2142706957   -0.3622277224
C        0.4245080594   -2.3505531995   -0.3079803595
C       -1.3987490325    1.1291146429    0.3406471814
C       -0.4703795498    1.7538297523   -0.6125607587
N        0.6886141214    1.1917338364   -0.6756297385
H        1.3933579009    0.3309098018    1.0738806583
H        2.0215288452   -1.1395391840   -0.9164208038
H        0.5563983417   -3.3576621815   -0.6828366767
H       -2.4150626455    1.4514962141    0.5368395216
H       -0.7045498392    2.6207759088   -1.2294916450
C       -0.7336122001    0.1003825362    0.8960211307
H       -1.0890437453   -0.5998127484    1.6424309228
