13   
Frame   0 IRC: Energy =  -286.8969880000 ; +0.0000 kcal/mol
C        1.0042836072    0.2216049221    0.3323543011
C        1.1840799552   -1.0722923328   -0.4629398147
C       -0.0157230430   -1.5629760734   -0.1229705744
C       -1.3127637842    0.6651087789    0.1016386642
C       -0.5104712838    1.6121197592   -0.5576667805
N        0.8035442258    1.4226712253   -0.4715778154
H        1.7326939383    0.4028295862    1.1311373369
H        1.9962824410   -1.4190895109   -1.0936373288
H       -0.5522783367   -2.4767347369   -0.3612575711
H       -2.3971702726    0.6587032431    0.1180217809
H       -0.8933306861    2.4501726519   -1.1360278187
C       -0.4152361736   -0.3466265136    0.7332454093
H       -0.6239105870   -0.5554909989    1.7896802110
13   
Frame   1 IRC: Energy =  -286.8964120080 ; +0.3614 kcal/mol
C        0.9975132951    0.2172799503    0.3241409092
C        1.2054772662   -1.0833985965   -0.4464177103
C       -0.0099815057   -1.5648231171   -0.1503405364
C       -1.3211288733    0.6801873615    0.1190087142
C       -0.5185464121    1.6050885961   -0.5729033556
N        0.7933992577    1.3972373738   -0.5122703532
H        1.7033366015    0.4355048633    1.1342818706
H        2.0435351797   -1.4414537251   -1.0350683319
H       -0.5384387406   -2.4779460103   -0.4079712385
H       -2.3990820766    0.7363809793    0.2247584399
H       -0.9014862675    2.4412778116   -1.1544363721
C       -0.4247554729   -0.3536940535    0.7133504016
H       -0.6298422514   -0.5916414334    1.7638675626
13   
Frame   2 IRC: Energy =  -286.8948585422 ; +1.3363 kcal/mol
C        0.9839693045    0.2107118031    0.3186433491
C        1.2207844984   -1.0885435827   -0.4348213604
C        0.0003734960   -1.5743668584   -0.1697054296
C       -1.3298393294    0.6948666190    0.1309292302
C       -0.5232536746    1.5966086507   -0.5901964425
N        0.7842688259    1.3704176117   -0.5460157933
H        1.6670910804    0.4551041005    1.1410703992
H        2.0763630949   -1.4381418646   -1.0021581513
H       -0.4988613274   -2.5037488667   -0.4375973250
H       -2.3863871798    0.8330820582    0.3345432974
H       -0.9008504580    2.4303425224   -1.1789883266
C       -0.4409572066   -0.3645988754    0.6943429942
H       -0.6527011242   -0.6217333178    1.7399535586
13   
Frame   3 IRC: Energy =  -286.8912828086 ; +3.5801 kcal/mol
C        0.9626309662    0.1971082653    0.3174354071
C        1.2110589611   -1.0916327548   -0.4198328704
C       -0.0034034057   -1.6000237615   -0.1784368842
C       -1.3377064035    0.7306416203    0.1677590914
C       -0.5241073545    1.5983599098   -0.5927317889
N        0.7730900178    1.3308667156   -0.5795201189
H        1.6567333975    0.4601687556    1.1229437201
H        2.0837483838   -1.4044187462   -0.9777531171
H       -0.4140707530   -2.5633414093   -0.4913308834
H       -2.3858038241    0.9136811048    0.3878499638
H       -0.8827052976    2.4236473092   -1.2066940090
C       -0.4674460023   -0.3716820811    0.7001129572
H       -0.6720186857   -0.6233749278    1.7501985323
13   
Frame   4 IRC: Energy =  -286.8821184600 ; +9.3308 kcal/mol
C        0.9457746755    0.1894214515    0.3202212844
C        1.1920266511   -1.0995497851   -0.4076865016
C       -0.0055017136   -1.6573966660   -0.2000320345
C       -1.3328442201    0.7892072222    0.2173797513
C       -0.5195832372    1.6140009360   -0.5970728692
N        0.7685667722    1.3111644147   -0.6034041746
H        1.6613214607    0.4617560923    1.1040034663
H        2.0844357365   -1.3696597188   -0.9599814669
H       -0.3586145753   -2.6535351268   -0.5530616519
H       -2.3934228168    0.9406956690    0.4000890346
H       -0.8728055586    2.4253430568   -1.2350819816
C       -0.4802644697   -0.3278272992    0.7376414623
H       -0.6890887049   -0.6236202464    1.7769856813
13   
Frame   5 IRC: Energy =  -286.8652576419 ; +19.9111 kcal/mol
C        0.9295474413    0.1907627393    0.3240552388
C        1.1797270040   -1.1034677950   -0.4011155119
C        0.0206577157   -1.7390888625   -0.2428091750
C       -1.3307090715    0.8215778867    0.2469455059
C       -0.5108550373    1.6195356882   -0.6071853456
N        0.7671190511    1.3059148827   -0.6146262555
H        1.6613221380    0.4601461633    1.0945289678
H        2.0817581711   -1.3515986505   -0.9521505330
H       -0.3436755526   -2.7250937219   -0.5929270855
H       -2.3961367176    0.9466777176    0.4058360104
H       -0.8683103738    2.4251115082   -1.2471932221
C       -0.4889791822   -0.2130556977    0.8032934822
H       -0.7014655862   -0.6374218585    1.7833479235
13   
Frame   6 IRC: Energy =  -286.8565812878 ; +25.3556 kcal/mol (Transition State)
C        0.9096279005    0.1938466921    0.3292575802
C        1.1635018281   -1.1083392112   -0.3947479755
C        0.0564512219   -1.8245783075   -0.2897713462
C       -1.3284865044    0.8350190698    0.2731401063
C       -0.4977504688    1.6231887183   -0.6183751546
N        0.7641730968    1.3045735429   -0.6219982879
H        1.6603397858    0.4569172193    1.0872318817
H        2.0766130828   -1.3374049923   -0.9454466797
H       -0.3358897665   -2.7792082835   -0.6223393449
H       -2.3966223044    0.9505644020    0.4110608655
H       -0.8650545678    2.4253529820   -1.2557104429
C       -0.4968164969   -0.0883162479    0.8736977992
H       -0.7100868071   -0.6516155839    1.7740009986
13   
Frame   7 IRC: Energy =  -286.8608069719 ; +22.7040 kcal/mol
C        0.8880123992    0.1990391729    0.3401266248
C        1.1404715049   -1.1166534104   -0.3855736548
C        0.0918873088   -1.9105671682   -0.3351733498
C       -1.3270851946    0.8632005591    0.3004958299
C       -0.4904003660    1.6299928081   -0.6281951511
N        0.7606359184    1.3000453427   -0.6299715012
H        1.6645182428    0.4519965766    1.0761942184
H        2.0681449045   -1.3152378509   -0.9325711809
H       -0.3219753390   -2.8462564488   -0.6592565769
H       -2.3989062000    0.9593247655    0.4177957630
H       -0.8612418499    2.4266113150   -1.2692572721
C       -0.4952385110    0.0162460340    0.9436385280
H       -0.7188228181   -0.6577416955    1.7617477226
13   
Frame   8 IRC: Energy =  -286.8651794741 ; +19.9602 kcal/mol
C        0.8658129430    0.1982912233    0.3507253424
C        1.1108191973   -1.1292262287   -0.3735863620
C        0.1146318491   -1.9852042943   -0.3678916516
C       -1.3263887128    0.9089576930    0.3306519339
C       -0.4900581590    1.6408692716   -0.6309032669
N        0.7528826538    1.2846221354   -0.6408633442
H        1.6740246249    0.4405731078    1.0551509226
H        2.0547265115   -1.2798562948   -0.9086899398
H       -0.2684608141   -2.9294788068   -0.7130979164
H       -2.4016981824    0.9907322691    0.4350474036
H       -0.8546465959    2.4257403434   -1.2900167309
C       -0.4973900436    0.0764353217    0.9898106520
H       -0.7342552717   -0.6424557406    1.7636629573
13   
Frame   9 IRC: Energy =  -286.8681857569 ; +18.0737 kcal/mol
C        0.8428803145    0.1866950556    0.3494598351
C        1.0894988516   -1.1397342449   -0.3651594497
C        0.1290884601   -2.0400871634   -0.3861119939
C       -1.3315179507    0.9474226107    0.3549218254
C       -0.4921705043    1.6467080987   -0.6321612533
N        0.7419422396    1.2620729441   -0.6537683432
H        1.6696121328    0.4236256158    1.0380211475
H        2.0423101816   -1.2585435108   -0.8916556734
H       -0.1691591317   -3.0009121877   -0.7690902847
H       -2.4006955452    1.0523994201    0.4690471902
H       -0.8484775817    2.4259585117   -1.3063723246
C       -0.5143954208    0.1050605470    1.0105380018
H       -0.7589160457   -0.6106656970    1.7823313229
13   
Frame  10 IRC: Energy =  -286.8705066483 ; +16.6173 kcal/mol
C        0.8172302475    0.1717795599    0.3465064907
C        1.0771484604   -1.1552523275   -0.3624060890
C        0.1521623142   -2.0886756549   -0.3998911767
C       -1.3360253389    0.9846414528    0.3713944111
C       -0.4966637015    1.6528241504   -0.6353870209
N        0.7267825448    1.2384418782   -0.6693160212
H        1.6473003662    0.4094254394    1.0285724576
H        2.0346673654   -1.2511975463   -0.8842689378
H       -0.0607777488   -3.0616579713   -0.8135388198
H       -2.4003337191    1.1291468208    0.5117527602
H       -0.8434313804    2.4291503236   -1.3145131875
C       -0.5313559273    0.1200112597    1.0172980574
H       -0.7867034826   -0.5786373848    1.8037970759
13   
Frame  11 IRC: Energy =  -286.8721558922 ; +15.5824 kcal/mol
C        0.7889803467    0.1534213743    0.3372485217
C        1.0708256948   -1.1719037777   -0.3617448760
C        0.1833981587   -2.1420072564   -0.4108220151
C       -1.3411830177    1.0223544803    0.3868643974
C       -0.5019368602    1.6612939680   -0.6375325621
N        0.7091989377    1.2136496207   -0.6874305563
H        1.6163003765    0.3977837242    1.0198231088
H        2.0331033991   -1.2445764489   -0.8795341709
H        0.0448475584   -3.1196510616   -0.8413009416
H       -2.3956072805    1.2124740262    0.5571126621
H       -0.8378200712    2.4401427235   -1.3168548000
C       -0.5528637197    0.1294130591    1.0170003351
H       -0.8172435226   -0.5523944315    1.8171708968
13   
Frame  12 IRC: Energy =  -286.8733570895 ; +14.8286 kcal/mol
C        0.7593366351    0.1335181419    0.3207903100
C        1.0678506114   -1.1896284690   -0.3635552619
C        0.2202724962   -2.1943970765   -0.4144264022
C       -1.3477095568    1.0583673581    0.4021568718
C       -0.5059104182    1.6726768901   -0.6371290323
N        0.6907708290    1.1910932478   -0.7064542719
H        1.5813382247    0.3875129113    1.0094522900
H        2.0333544173   -1.2376844247   -0.8766574630
H        0.1473145341   -3.1801417442   -0.8503862021
H       -2.3853797603    1.2950359838    0.6001818878
H       -0.8304929288    2.4620710335   -1.3130431272
C       -0.5804779541    0.1352885322    1.0111923111
H       -0.8502671296   -0.5337123844    1.8178780898
13   
Frame  13 IRC: Energy =  -286.8741389840 ; +14.3380 kcal/mol
C        0.7280140568    0.1145897217    0.3018511251
C        1.0639555949   -1.2081711496   -0.3680833315
C        0.2620648650   -2.2477780270   -0.4067587883
C       -1.3520271012    1.0941758854    0.4114602049
C       -0.5084655284    1.6904824884   -0.6354793807
N        0.6715730464    1.1735745129   -0.7252980627
H        1.5423937558    0.3772121331    0.9962681784
H        2.0321239742   -1.2301865480   -0.8812096619
H        0.2480388423   -3.2407455505   -0.8338993357
H       -2.3752506872    1.3722621899    0.6373247572
H       -0.8180425276    2.4943612193   -1.2997238397
C       -0.6069156814    0.1366399119    0.9970403600
H       -0.8874626094   -0.5264167876    1.8065077749
13   
Frame  14 IRC: Energy =  -286.8745280538 ; +14.0938 kcal/mol
C        0.7007278674    0.1004372599    0.2805138074
C        1.0605223768   -1.2211373282   -0.3784900319
C        0.3065908153   -2.2960410704   -0.3759983058
C       -1.3571347518    1.1235621523    0.4143132911
C       -0.5060607556    1.7145164502   -0.6298208141
N        0.6570357173    1.1650214442   -0.7411992244
H        1.5073505557    0.3666695337    0.9831457238
H        2.0229349990   -1.2208030752   -0.9022070851
H        0.3391369344   -3.2991978136   -0.7777175544
H       -2.3667577254    1.4318643333    0.6586674273
H       -0.7975635744    2.5402564591   -1.2756190682
C       -0.6371214663    0.1312925464    0.9718193171
H       -0.9296609923   -0.5364408917    1.7725925171
13   
Frame  15 IRC: Energy =  -286.8747741862 ; +13.9394 kcal/mol
C        0.6757446636    0.0879841897    0.2619551286
C        1.0547747433   -1.2320972009   -0.3902288704
C        0.3538331541   -2.3409146748   -0.3330533125
C       -1.3625463876    1.1474887428    0.4111437527
C       -0.5003431909    1.7382142662   -0.6238722145
N        0.6498141634    1.1642673237   -0.7477901719
H        1.4746621296    0.3521609339    0.9739690410
H        2.0000171523   -1.2067867704   -0.9429509212
H        0.4267165076   -3.3527635344   -0.7085302212
H       -2.3625952662    1.4779516230    0.6659717955
H       -0.7726278713    2.5849596940   -1.2510938500
C       -0.6652516570    0.1270666333    0.9475393703
H       -0.9721981408   -0.5475312260    1.7369404737
13   
Frame  16 IRC: Energy =  -286.8749135540 ; +13.8519 kcal/mol
C        0.6584220780    0.0777698540    0.2511410181
C        1.0460861996   -1.2369535382   -0.3988312637
C        0.3970550009   -2.3731616926   -0.2826461068
C       -1.3661811095    1.1610038917    0.4016955702
C       -0.4896729477    1.7544615871   -0.6190688323
N        0.6539600123    1.1670801461   -0.7426094754
H        1.4465895568    0.3354815449    0.9805137156
H        1.9552232016   -1.1818073304   -1.0087060604
H        0.4980078700   -3.3894257558   -0.6396122695
H       -2.3630778551    1.5019224495    0.6553723658
H       -0.7460058983    2.6137571234   -1.2358842761
C       -0.6843668732    0.1263520946    0.9310647733
H       -1.0060392354   -0.5564803743    1.7075708411
