13   
From optimize.out: Frame 1 / 21, Energy=    -286.7149982513
C        1.6499860692    0.3921450031   -1.9373029873
C        0.8883821372   -0.9843308250   -1.6647543058
C       -0.6771906625   -0.7525817476   -2.0425011588
C       -1.2583215555    0.3572946005   -0.6028148607
C       -0.6299951776    0.7167420613   -2.0415013992
N        0.8475028357    1.2745899992   -2.2230316107
H        2.7233729416    0.7120233212   -1.9077471139
H        1.3168831144   -1.9463061043   -1.4686198327
H       -0.9317825138   -1.5042254954   -2.7976980982
H       -2.3200092242    0.5660513938   -0.4160906475
H       -1.4572192687    1.1646398115   -2.5339712187
C       -0.8450239148   -1.0057903764   -0.5481204747
H       -1.0199127226   -2.1158395263   -0.1281450746
13   
From optimize.out: Frame 2 / 21, Energy=    -286.7589547905
C        1.5776155082    0.3648547109   -1.9096110121
C        0.8644607120   -0.9894365996   -1.6632055140
C       -0.6433534786   -0.7673006595   -2.0664931412
C       -1.2237969112    0.3677765482   -0.6054999462
C       -0.6396745092    0.7205690932   -2.0506789750
N        0.7833881689    1.2833334382   -2.2115587204
H        2.6485784757    0.6438586743   -1.8497138730
H        1.2995975567   -1.9528336163   -1.4595069847
H       -0.8971134161   -1.5205278478   -2.8205702173
H       -2.2756843772    0.5810994128   -0.3914805086
H       -1.4687142398    1.1832319876   -2.5505546515
C       -0.7867878770   -0.9914494421   -0.5794752078
H       -0.9518435542   -2.0487635843   -0.1539500310
13   
From optimize.out: Frame 3 / 21, Energy=    -286.7897989398
C        1.5142060809    0.3398088410   -1.8776673812
C        0.8274572531   -0.9777963705   -1.6569216738
C       -0.6216065106   -0.7847051267   -2.0978158050
C       -1.1842677692    0.3783643894   -0.6101810367
C       -0.6485035327    0.7204385921   -2.0642744958
N        0.7268284329    1.2798378284   -2.2010329931
H        2.5830244695    0.5797671377   -1.7833992236
H        1.2696236036   -1.9377914049   -1.4448855638
H       -0.8829910679   -1.5382236854   -2.8494780733
H       -2.2243291196    0.5951310745   -0.3623543786
H       -1.4768431494    1.1932545614   -2.5701560885
C       -0.7220302155   -0.9811568027   -0.6180462373
H       -0.8738964166   -1.9925169188   -0.1760858321
13   
From optimize.out: Frame 4 / 21, Energy=    -286.8087654079
C        1.4682310998    0.3258564375   -1.8445054516
C        0.7951183723   -0.9739681415   -1.6440745487
C       -0.6110436052   -0.8055572770   -2.1350395390
C       -1.1491030533    0.3869007802   -0.6159065216
C       -0.6629508275    0.7181803759   -2.0799200290
N        0.6843330181    1.2782848694   -2.1888538409
H        2.5344476020    0.5364693744   -1.7226363696
H        1.2503467564   -1.9311684291   -1.4363326080
H       -0.8880108499   -1.5543821843   -2.8854545878
H       -2.1765144794    0.6082969135   -0.3330411620
H       -1.4858091660    1.2048041384   -2.5934395424
C       -0.6639393839   -0.9731365993   -0.6563281743
H       -0.8084334251   -1.9461681425   -0.1767664079
13   
From optimize.out: Frame 5 / 21, Energy=    -286.8206569689
C        1.4413658112    0.3209736629   -1.8179776767
C        0.7732497630   -0.9756869456   -1.6270339568
C       -0.6061802395   -0.8276418752   -2.1706881343
C       -1.1255920227    0.3915898197   -0.6201409001
C       -0.6800625563    0.7123062830   -2.0906805480
N        0.6570885149    1.2788198385   -2.1727065441
H        2.5055523667    0.5114050653   -1.6789678614
H        1.2479866428   -1.9304692498   -1.4426536932
H       -0.9009695085   -1.5663649684   -2.9221819797
H       -2.1412482447    0.6182803655   -0.3066985465
H       -1.4913084051    1.2134943487   -2.6165728912
C       -0.6235942074   -0.9686534192   -0.6875782530
H       -0.7696158559   -1.9036408097   -0.1584177978
13   
From optimize.out: Frame 6 / 21, Energy=    -286.8283037068
C        1.4264958900    0.3205387343   -1.7988095858
C        0.7608937328   -0.9790744632   -1.6085897541
C       -0.6006176555   -0.8485227202   -2.1997319805
C       -1.1128806464    0.3940964337   -0.6220179835
C       -0.6962593673    0.7041996857   -2.0952924492
N        0.6396622946    1.2789554976   -2.1545368783
H        2.4901249698    0.4988725929   -1.6527673333
H        1.2590158580   -1.9311004855   -1.4666997220
H       -0.9135215133   -1.5728373910   -2.9546142057
H       -2.1186918172    0.6263563524   -0.2845249028
H       -1.4899006229    1.2176831498   -2.6398784502
C       -0.6008625831   -0.9677936859   -0.7072873110
H       -0.7567864812   -1.8669615849   -0.1275482264
13   
From optimize.out: Frame 7 / 21, Energy=    -286.8329865389
C        1.4180047989    0.3216499759   -1.7848149222
C        0.7531873418   -0.9829945840   -1.5885999164
C       -0.5930508206   -0.8661234666   -2.2209900959
C       -1.1074326154    0.3958188901   -0.6231364516
C       -0.7113868991    0.6958592619   -2.0968033213
N        0.6285584777    1.2767403838   -2.1394369270
H        2.4817381753    0.4946290100   -1.6351422702
H        1.2734374998   -1.9310114815   -1.5001618971
H       -0.9279922408   -1.5728521080   -2.9797162654
H       -2.1047503014    0.6315260272   -0.2644150929
H       -1.4818838585    1.2185144402   -2.6663501659
C       -0.5865422284   -0.9687886533   -0.7164167956
H       -0.7552152709   -1.8385555800   -0.0963146613
13   
From optimize.out: Frame 8 / 21, Energy=    -286.8354742668
C        1.4134866151    0.3245617667   -1.7742568965
C        0.7498395471   -0.9877902706   -1.5710912181
C       -0.5842325691   -0.8814054119   -2.2361440210
C       -1.1052382465    0.3976112597   -0.6262185335
C       -0.7257945839    0.6863717792   -2.0982594295
N        0.6208846194    1.2733635831   -2.1267998458
H        2.4769888684    0.4980535712   -1.6204635786
H        1.2895688232   -1.9291334184   -1.5334861123
H       -0.9513706800   -1.5672146753   -2.9963191834
H       -2.0937867392    0.6334126972   -0.2444791419
H       -1.4677298772    1.2170182990   -2.6967610470
C       -0.5739226514   -0.9710343715   -0.7171509953
H       -0.7620210675   -1.8194026928   -0.0708687798
13   
From optimize.out: Frame 9 / 21, Energy=    -286.8362643901
C        1.4129915870    0.3272109532   -1.7690427881
C        0.7497337957   -0.9921681101   -1.5626589356
C       -0.5770657029   -0.8895585182   -2.2456336703
C       -1.1083702608    0.3984414654   -0.6330644131
C       -0.7380603401    0.6790046417   -2.1014131851
N        0.6177216824    1.2700591903   -2.1177900704
H        2.4758351020    0.5040965052   -1.6095720356
H        1.3008071090   -1.9278595898   -1.5487159057
H       -0.9817417850   -1.5578340566   -3.0005176727
H       -2.0887160583    0.6257400781   -0.2260504122
H       -1.4509454921    1.2180900193   -2.7255086809
C       -0.5591552790   -0.9707225471   -0.7138503592
H       -0.7663622997   -1.8100879157   -0.0584806540
13   
From optimize.out: Frame 11 / 21, Energy=    -286.8363930197
C        1.4173495686    0.3333082199   -1.7727529707
C        0.7546833456   -0.9909290774   -1.5640927848
C       -0.5707965967   -0.8867853759   -2.2477791970
C       -1.1136676155    0.3948942297   -0.6419233585
C       -0.7411518436    0.6732077143   -2.1049871340
N        0.6195776668    1.2729253825   -2.1124974053
H        2.4799175558    0.5152485765   -1.6129008145
H        1.3087669682   -1.9244405971   -1.5464988874
H       -1.0079774922   -1.5584440890   -2.9808605959
H       -2.0845923296    0.6125545178   -0.2092851368
H       -1.4315631662    1.2218915063   -2.7441124950
C       -0.5559778083   -0.9728113701   -0.7090160765
H       -0.7878961947   -1.8162075220   -0.0655919264
13   
From optimize.out: Frame 13 / 21, Energy=    -286.8364575590
C        1.4165635335    0.3278559353   -1.7736185606
C        0.7529962962   -0.9913257537   -1.5617978172
C       -0.5727746657   -0.8823331017   -2.2440419114
C       -1.1176304698    0.3962533701   -0.6409567181
C       -0.7386258522    0.6777359254   -2.1034107703
N        0.6205113795    1.2712194810   -2.1137920531
H        2.4783271299    0.5080003543   -1.6088600571
H        1.3039052024   -1.9269192494   -1.5549871995
H       -0.9950050324   -1.5631405044   -2.9777671214
H       -2.0917715122    0.6192488119   -0.2181328290
H       -1.4402688220    1.2213676208   -2.7355707726
C       -0.5572643137   -0.9682236924   -0.7111110467
H       -0.7722908150   -1.8153270817   -0.0682519256
13   
From optimize.out: Frame 15 / 21, Energy=    -286.8364901340
C        1.4152966445    0.3312786685   -1.7675557012
C        0.7537145373   -0.9919908309   -1.5645514375
C       -0.5718420812   -0.8839444456   -2.2467016289
C       -1.1157625005    0.3953373803   -0.6432272940
C       -0.7393615260    0.6753792772   -2.1054240995
N        0.6198381674    1.2719360146   -2.1142083898
H        2.4775854061    0.5121327860   -1.6062316551
H        1.3060994421   -1.9266304680   -1.5551431365
H       -1.0026695199   -1.5643968912   -2.9755863649
H       -2.0856204008    0.6213084126   -0.2127002086
H       -1.4375139706    1.2203531231   -2.7399940865
C       -0.5561826837   -0.9699792814   -0.7117737489
H       -0.7769094563   -1.8163716295   -0.0692010314
13   
From optimize.out: Frame 16 / 21, Energy=    -286.8364935466
C        1.4155163371    0.3307544435   -1.7676038108
C        0.7543964712   -0.9922314839   -1.5653619249
C       -0.5718394890   -0.8839200441   -2.2471369157
C       -1.1163467467    0.3952232821   -0.6433742291
C       -0.7396566080    0.6756264162   -2.1053801984
N        0.6194868312    1.2715554635   -2.1139090851
H        2.4775701420    0.5116707710   -1.6050804312
H        1.3065734727   -1.9270265569   -1.5548105235
H       -1.0018853380   -1.5649713592   -2.9759105501
H       -2.0853339283    0.6236953653   -0.2123216048
H       -1.4392526808    1.2199745755   -2.7390854568
C       -0.5567546630   -0.9698123972   -0.7126111084
H       -0.7758017419   -1.8161263603   -0.0697129442
13   
From optimize.out: Frame 17 / 21, Energy=    -286.8364984739
C        1.4150586727    0.3309444806   -1.7670110025
C        0.7545579807   -0.9921920570   -1.5654854203
C       -0.5709629290   -0.8842221121   -2.2480568402
C       -1.1168399320    0.3944603474   -0.6440690527
C       -0.7396794477    0.6753258284   -2.1057075990
N        0.6188083717    1.2718547701   -2.1134111901
H        2.4769848714    0.5120157566   -1.6041783099
H        1.3069698142   -1.9268531111   -1.5546957491
H       -1.0013764327   -1.5662661439   -2.9756666378
H       -2.0830036515    0.6278105128   -0.2096910931
H       -1.4400139517    1.2189272845   -2.7393738885
C       -0.5576713656   -0.9703544454   -0.7137247598
H       -0.7761599422   -1.8170389953   -0.0712272396
13   
From optimize.out: Frame 18 / 21, Energy=    -286.8365050526
C        1.4141635572    0.3315229133   -1.7659863972
C        0.7550679944   -0.9924310580   -1.5664202384
C       -0.5690357522   -0.8855063102   -2.2504671077
C       -1.1182926605    0.3925844342   -0.6462317608
C       -0.7404894026    0.6740738722   -2.1070705120
N        0.6173299417    1.2721239759   -2.1126770822
H        2.4753821730    0.5138665098   -1.6002713168
H        1.3085497451   -1.9264400268   -1.5543368718
H       -1.0020419150   -1.5685345716   -2.9755595339
H       -2.0766756615    0.6364667638   -0.2014100526
H       -1.4405848245    1.2168926529   -2.7418226086
C       -0.5592975450   -0.9715033969   -0.7158713229
H       -0.7774035918   -1.8187036430   -0.0741739779
13   
From optimize.out: Frame 19 / 21, Energy=    -286.8365075338
C        1.4135543547    0.3319335494   -1.7651807282
C        0.7549190469   -0.9922947455   -1.5661013547
C       -0.5682638520   -0.8862647127   -2.2511412828
C       -1.1191506800    0.3916043638   -0.6470461183
C       -0.7408298541    0.6735097631   -2.1074649181
N        0.6166229057    1.2723753270   -2.1121298486
H        2.4750133529    0.5142655117   -1.6009654090
H        1.3089177020   -1.9259802645   -1.5532423297
H       -1.0004808436   -1.5690350188   -2.9769495152
H       -2.0737904861    0.6404466068   -0.1972942057
H       -1.4407323479    1.2159163665   -2.7427976984
C       -0.5606853739   -0.9722085617   -0.7166670510
H       -0.7784218664   -1.8198560696   -0.0753183232
13   
From optimize.out: Frame 20 / 21, Energy=    -286.8365105536
C        1.4125119767    0.3323594533   -1.7647873156
C        0.7546399938   -0.9924727361   -1.5665882035
C       -0.5679545882   -0.8879830682   -2.2521229554
C       -1.1197837199    0.3903870307   -0.6485412145
C       -0.7416887549    0.6721863170   -2.1085841440
N        0.6154329872    1.2723047186   -2.1124528091
H        2.4733720107    0.5159166008   -1.5979515911
H        1.3095259171   -1.9256160995   -1.5525376858
H       -0.9983681470   -1.5698126408   -2.9799146515
H       -2.0677948483    0.6472084400   -0.1898608873
H       -1.4411946229    1.2142248917   -2.7446401356
C       -0.5625252205   -0.9731957450   -0.7178577791
H       -0.7795009255   -1.8210950468   -0.0764594104
