13   
From optimize.out: Frame 1 / 1, Energy=    -286.9243386648
C        1.5261120191    0.2823998020    0.6697659773
C        1.0972289682   -1.0098286500    0.4324461205
C       -0.1575940425   -1.4433720349   -0.1271523590
C       -1.2393358011    0.7884342166   -0.5032724649
C       -0.2744246816    1.6673626431   -0.0480740357
N        0.9612499246    1.4976022847    0.4779004187
H        2.5255510377    0.3608900613    1.1033706514
H        1.7990871818   -1.7951192913    0.7028276008
H       -0.2857686699   -2.5193594907   -0.2262905290
H       -2.1516602502    1.2454761228   -0.8790338708
H       -0.5457249603    2.7229459673   -0.1204472999
C       -1.1866370566   -0.6506783505   -0.5403412485
H       -2.0680836691   -1.1467532807   -0.9416989612
13   
From optimize.out: Frame 2 / 3, Energy=    -286.7710640273
C        1.3466637608    0.0104365167    0.2039185446
C        1.0887031059   -1.3381661652    0.7512374264
C        2.0460805097   -2.1084247330    1.2331244293
C       -1.8102835579    1.7871357684   -0.3547768344
C       -0.8749993102    0.6029607014   -0.3850023911
N        0.5268312114    0.8618775154   -0.2894318835
H        2.3972137680    0.3108406333    0.2325780041
H        0.0597001816   -1.7108276015    0.7539916598
H        2.1295115841   -3.0940141536    1.6733798591
H       -2.2375383520    2.5500609421    0.2786509460
H       -1.2378448381   -0.3549326315    0.0034783460
C       -1.6337275873    1.2507505790   -1.5172192544
H       -1.8003104760    1.2323026286   -2.5839288521
