13   
Frame   0 IRC: Energy =  -286.7950241677 ; +0.0000 kcal/mol
C        1.5544248778    0.0938375700    0.1670720066
C        1.3562887175   -1.1013614845    1.0294028410
C        0.2277083839   -1.7217537314    1.3257774779
C       -1.6757192280    1.6059890312   -0.6392433728
C       -0.6859089170    0.4789258009   -0.4688471290
N        0.7040383159    0.7933185729   -0.4874789981
H        2.5958187031    0.4139758451    0.0889761868
H        2.2912922283   -1.4871489963    1.4555579624
H       -0.0462181725   -2.5797793952    1.9272082457
H       -2.1135536120    2.4648896085   -0.1548433297
H       -0.9659441616   -0.3983255422    0.1333582161
C       -1.5179894449    0.8453238443   -1.6743660847
H       -1.7242376900    0.5921088771   -2.7025740218
