13   
From optimize.out: Frame 2 / 3, Energy=    -286.8584653799
C        1.5751877236    0.4456964295   -0.0859246270
C        0.8224775221   -0.8153030354    0.1174561384
C       -0.5187162062   -0.9686041869   -0.5830774992
C       -1.1193980815    0.3160409781   -0.0361673903
C       -0.3701428071    1.5789271588   -0.2388473708
N        0.9609130039    1.6141495743   -0.2598457188
H        2.6634259738    0.4386562133   -0.0979529891
H        1.4063163589   -1.7246875642    0.2497027670
H       -0.9207244973   -1.7424615602   -1.2221101752
H       -2.2063341362    0.3789713473   -0.0331540677
H       -0.9040697882    2.5169144806   -0.3782928638
C       -0.5024268939   -0.7468623541    0.8584352223
H       -0.8865081718   -1.2914374808    1.7097785743
13   
From optimize.out: Frame 1 / 3, Energy=    -286.8584556587
C        1.5748599054    0.4457949740   -0.0860317596
C        0.8229557592   -0.8160969870    0.1166120045
C       -0.5200598412   -0.9688885879   -0.5830004193
C       -1.1192044585    0.3159568790   -0.0355108537
C       -0.3703706085    1.5798969104   -0.2390095738
N        0.9608892208    1.6152682481   -0.2557641062
H        2.6628065438    0.4376265635   -0.0979064337
H        1.4076710844   -1.7255910363    0.2501101096
H       -0.9239840193   -1.7415043390   -1.2229397548
H       -2.2059505343    0.3777711621   -0.0368484009
H       -0.9048727445    2.5181695496   -0.3803360802
C       -0.5012349430   -0.7476811521    0.8586617737
H       -0.8835053643   -1.2907221844    1.7119634944
13   
From optimize.out: Frame 33 / 34, Energy=    -286.8584556587
C        1.5748599054    0.4457949740   -0.0860317596
C        0.8229557592   -0.8160969870    0.1166120045
C       -0.5200598412   -0.9688885879   -0.5830004193
C       -1.1192044585    0.3159568790   -0.0355108537
C       -0.3703706085    1.5798969104   -0.2390095738
N        0.9608892208    1.6152682481   -0.2557641062
H        2.6628065438    0.4376265635   -0.0979064337
H        1.4076710844   -1.7255910363    0.2501101096
H       -0.9239840193   -1.7415043390   -1.2229397548
H       -2.2059505343    0.3777711621   -0.0368484009
H       -0.9048727445    2.5181695496   -0.3803360802
C       -0.5012349430   -0.7476811521    0.8586617737
H       -0.8835053643   -1.2907221844    1.7119634944
13   
From optimize.out: Frame 32 / 34, Energy=    -286.8584483777
C        1.5752994177    0.4479550165   -0.0859708257
C        0.8170171192   -0.8065785802    0.1355435329
C       -0.5150591995   -0.9794526301   -0.5748014603
C       -1.1234083764    0.3149224153   -0.0090429510
C       -0.3668594661    1.5705265140   -0.2552468568
N        0.9646752312    1.6090391115   -0.2891132467
H        2.6625415022    0.4333434348   -0.1062588290
H        1.3991515491   -1.7118756279    0.2912247389
H       -0.9161728844   -1.6813826035   -1.2977871895
H       -2.2118339358    0.3654339316   -0.0071220725
H       -0.8967191985    2.5088171104   -0.3954882759
C       -0.5192366271   -0.7664898922    0.8618936783
H       -0.8693951317   -1.3042582002    1.7321697573
13   
From optimize.out: Frame 30 / 34, Energy=    -286.8584214792
C        1.5748127713    0.4456955960   -0.1028159238
C        0.8235874964   -0.8088750963    0.1531069467
C       -0.4994709044   -1.0059697983   -0.5418413958
C       -1.1095898824    0.3086299672    0.0149174563
C       -0.3724725789    1.5575786377   -0.2898765125
N        0.9589696085    1.5937693551   -0.3560069584
H        2.6627976458    0.4432604609   -0.0813583426
H        1.4151413381   -1.7072523332    0.3289744128
H       -0.9469555035   -1.5633403503   -1.3506362404
H       -2.1980081173    0.3601428245    0.0131553250
H       -0.9054129709    2.4989512561   -0.4044010857
C       -0.5197784770   -0.7725425635    0.8876686911
H       -0.8836204257   -1.3500479559    1.7291136273
13   
From optimize.out: Frame 29 / 34, Energy=    -286.8583943354
C        1.5744007857    0.4457583710   -0.1165120447
C        0.8335739479   -0.8123167347    0.1360479024
C       -0.4970311668   -1.0307328379   -0.5131616951
C       -1.0990441979    0.3026245352    0.0264703751
C       -0.3742792322    1.5480191884   -0.3097337901
N        0.9570286404    1.5877374795   -0.3907306163
H        2.6604870953    0.4566805495   -0.0532159576
H        1.4305737493   -1.7024455706    0.3316757328
H       -0.9678146515   -1.4994450338   -1.3627459778
H       -2.1879006384    0.3543294746    0.0126172713
H       -0.9022194193    2.4939738306   -0.4061037340
C       -0.5228461487   -0.7664668125    0.9175219225
H       -0.9049287638   -1.3777164394    1.7278706115
13   
From optimize.out: Frame 27 / 34, Energy=    -286.8582735639
C        1.5626979468    0.4372831229   -0.1267192764
C        0.8362414013   -0.8259981989    0.1127529033
C       -0.5098653114   -1.0624357409   -0.4595286083
C       -1.0906264862    0.2970181917    0.0337399053
C       -0.3800011309    1.5377469303   -0.3331177397
N        0.9502992898    1.5806694263   -0.4236553977
H        2.6441854171    0.4618541128   -0.0164546848
H        1.4387728423   -1.7096799467    0.3144541884
H       -0.9542059021   -1.4167239173   -1.3735986839
H       -2.1789557587    0.3473252849   -0.0038495168
H       -0.8999982324    2.4903690415   -0.4041263217
C       -0.5145834427   -0.7428672187    0.9512618306
H       -0.9039606329   -1.3945610879    1.7288414016
13   
From optimize.out: Frame 26 / 34, Energy=    -286.8581878949
C        1.5525975204    0.4178289498   -0.1369675624
C        0.8450861471   -0.8456594536    0.0524771707
C       -0.5313019427   -1.0911963387   -0.3895830989
C       -1.1016015804    0.2953752277    0.0349547377
C       -0.3887002249    1.5250568967   -0.3355044343
N        0.9368272704    1.5721906132   -0.4227270706
H        2.6279777458    0.4561172066    0.0120503276
H        1.4470160186   -1.7290295245    0.2547288936
H       -0.8912818286   -1.3733222206   -1.3657573577
H       -2.1860359696    0.3433499636   -0.0562966015
H       -0.8949576257    2.4875839964   -0.3858137855
C       -0.5113726537   -0.6857491584    0.9958946008
H       -0.9042528769   -1.3725461581    1.7425441804
13   
From optimize.out: Frame 25 / 34, Energy=    -286.8580173302
C        1.5549030666    0.4008058274   -0.1411968687
C        0.8723051582   -0.8586404243   -0.0075545025
C       -0.5255757919   -1.1074979219   -0.3469354232
C       -1.1249075577    0.2933819521    0.0309208492
C       -0.3913459988    1.5169321276   -0.3120639951
N        0.9261951852    1.5691156689   -0.3809368279
H        2.6284934609    0.4474457939    0.0116486279
H        1.4808159919   -1.7415474062    0.1778102345
H       -0.8667485750   -1.3880369215   -1.3304417987
H       -2.2019912292    0.3232873010   -0.1206123889
H       -0.8867680789    2.4866029272   -0.3628498528
C       -0.5294539476   -0.6213923166    1.0262321003
H       -0.9359216838   -1.3204566076    1.7559798460
13   
From optimize.out: Frame 23 / 34, Energy=    -286.8553170874
C        1.5594042965    0.3837822947   -0.1390327226
C        0.9004963537   -0.8724745177   -0.0563908485
C       -0.5162137677   -1.1229265983   -0.3198506370
C       -1.1537036150    0.2916934756    0.0284234899
C       -0.3956348744    1.5093893265   -0.2868554177
N        0.9161747403    1.5608924684   -0.3319368385
H        2.6338772552    0.4369085898    0.0049877711
H        1.5215327024   -1.7540854840    0.0973352590
H       -0.8459070787   -1.4082461280   -1.3075665639
H       -2.2217716180    0.3015920287   -0.1761564062
H       -0.8803205575    2.4853103483   -0.3459972211
C       -0.5497361701   -0.5536618207    1.0572301242
H       -0.9681976667   -1.2581739832    1.7758100113
13   
From optimize.out: Frame 22 / 34, Energy=    -286.8528959086
C        1.5587960499    0.3664738429   -0.1298349461
C        0.9185014377   -0.8894359805   -0.0984260576
C       -0.5098286949   -1.1437316278   -0.2986628900
C       -1.1843668207    0.2914154926    0.0225934222
C       -0.4028539587    1.5032088207   -0.2620376125
N        0.9055518035    1.5502349873   -0.2790969698
H        2.6347271517    0.4238060148    0.0030265956
H        1.5537566264   -1.7681490387    0.0188560697
H       -0.8280169166   -1.4360662908   -1.2904171556
H       -2.2405434051    0.2788626150   -0.2342190517
H       -0.8731919945    2.4870082336   -0.3259023501
C       -0.5563186378   -0.4749095865    1.0820397213
H       -0.9762126408   -1.1887174826    1.7920812247
13   
From optimize.out: Frame 20 / 34, Energy=    -286.8462926905
C        1.5504484278    0.3483987341   -0.1149033025
C        0.9236937741   -0.9129355681   -0.1286970639
C       -0.5015171138   -1.1754140685   -0.2977116588
C       -1.2161349830    0.2928155744    0.0141346425
C       -0.4118975422    1.5019421866   -0.2378755953
N        0.8949359249    1.5397204133   -0.2283111031
H        2.6269673134    0.4083633700    0.0118691967
H        1.5736714064   -1.7852472832   -0.0386154403
H       -0.8242313735   -1.4739099124   -1.2870505031
H       -2.2594017081    0.2532844141   -0.2845258624
H       -0.8670642394    2.4940666067   -0.2984386461
C       -0.5404834952   -0.3830284286    1.0899688507
H       -0.9489863913   -1.1080560385    1.8001564855
13   
From optimize.out: Frame 19 / 34, Energy=    -286.8428711912
C        1.5407889425    0.3298520305   -0.1002743803
C        0.9271378531   -0.9415225735   -0.1519285758
C       -0.4897786271   -1.2160754902   -0.3162386867
C       -1.2481206678    0.2974150010    0.0070602223
C       -0.4210394834    1.5068836227   -0.2149366813
N        0.8849812336    1.5308822763   -0.1853319627
H        2.6171908687    0.3944270162    0.0279552478
H        1.5902799835   -1.8061876083   -0.0716279341
H       -0.8302609486   -1.5219142221   -1.3003499700
H       -2.2818931443    0.2332577268   -0.3162561203
H       -0.8660441234    2.5051016584   -0.2665434415
C       -0.5138550876   -0.2908270688    1.0851297428
H       -0.9093867991   -1.0212923692    1.8033425397
13   
From optimize.out: Frame 17 / 34, Energy=    -286.8334788919
C        1.5335435383    0.3104910538   -0.0874289031
C        0.9333362441   -0.9729333253   -0.1690987321
C       -0.4792427332   -1.2594015023   -0.3432669418
C       -1.2792653117    0.3054708537    0.0007100690
C       -0.4316047862    1.5173277752   -0.1940950061
N        0.8749710160    1.5246203326   -0.1501004171
H        2.6097327619    0.3825344824    0.0485425773
H        1.6059972006   -1.8316138847   -0.0828164765
H       -0.8437061403   -1.5787219595   -1.3233442502
H       -2.3080742080    0.2216938090   -0.3327035845
H       -0.8714338149    2.5194139620   -0.2317886516
C       -0.4808438649   -0.2042605127    1.0679982254
H       -0.8634099018   -0.9346210842    1.7973920912
13   
From optimize.out: Frame 16 / 34, Energy=    -286.8277960833
C        1.5304098019    0.2905288375   -0.0745718413
C        0.9426727561   -1.0040025479   -0.1811480249
C       -0.4730217984   -1.2990607496   -0.3699460424
C       -1.3082747383    0.3148787314   -0.0061427972
C       -0.4449003666    1.5301826861   -0.1765733489
N        0.8647665614    1.5194565014   -0.1197672191
H        2.6064741351    0.3713244238    0.0741093652
H        1.6209435717   -1.8594908556   -0.0798140735
H       -0.8670862923   -1.6382035776   -1.3489649908
H       -2.3354521825    0.2146352017   -0.3404117339
H       -0.8828188877    2.5344696766   -0.1974200703
C       -0.4433100566   -0.1238401890    1.0401055161
H       -0.8104025038   -0.8508781388    1.7805452610
13   
From optimize.out: Frame 15 / 34, Energy=    -286.8212172670
C        1.5345692426    0.2706369279   -0.0599942451
C        0.9551381430   -1.0313194935   -0.1878699403
C       -0.4714043121   -1.3293450444   -0.3923659877
C       -1.3348231047    0.3235566518   -0.0138020028
C       -0.4619303936    1.5413582078   -0.1637452791
N        0.8550878866    1.5095281611   -0.0916325661
H        2.6103874361    0.3604605528    0.1039803833
H        1.6349522607   -1.8868398075   -0.0672110180
H       -0.9036363252   -1.6938700842   -1.3765380521
H       -2.3627544702    0.2081357564   -0.3420107806
H       -0.9014631056    2.5459040795   -0.1656558021
C       -0.4033940842   -0.0491454520    1.0030603332
H       -0.7507291734   -0.7690604557    1.7537849573
13   
From optimize.out: Frame 13 / 34, Energy=    -286.8048234795
C        1.5538750208    0.2548342083   -0.0468961648
C        0.9725587286   -1.0550816250   -0.1890354817
C       -0.4749150637   -1.3485910376   -0.4096675498
C       -1.3626072380    0.3307743238   -0.0211599731
C       -0.4824571080    1.5493087600   -0.1528497542
N        0.8465488117    1.4919048971   -0.0658652485
H        2.6313429611    0.3536971446    0.1322444050
H        1.6516387204   -1.9140050979   -0.0453463158
H       -0.9544479037   -1.7436804191   -1.4057375790
H       -2.3931040291    0.2027758118   -0.3426296149
H       -0.9283661082    2.5524234764   -0.1359557416
C       -0.3666794655    0.0170980721    0.9638029886
H       -0.6933873263   -0.6914585145    1.7190960297
13   
From optimize.out: Frame 12 / 34, Energy=    -286.7954760785
C        1.5645639224    0.2472187926   -0.0291114463
C        0.9784952097   -1.0806709639   -0.1880214446
C       -0.4751035157   -1.3649790768   -0.4297530506
C       -1.3779907995    0.3443320619   -0.0273572238
C       -0.4990677021    1.5629645260   -0.1616563022
N        0.8413894478    1.4803694378   -0.0512854596
H        2.6401219909    0.3507246417    0.1739687176
H        1.6635387374   -1.9341884180   -0.0185855159
H       -1.0172937187   -1.7829407717   -1.4265111215
H       -2.4213021636    0.1893670867   -0.3211147903
H       -0.9423865450    2.5665898339   -0.1251198329
C       -0.3221115160    0.0692930123    0.9354446401
H       -0.6328533478   -0.6480801624    1.6691028301
13   
From optimize.out: Frame 10 / 34, Energy=    -286.7759771218
C        1.5659232786    0.2476955525   -0.0183978601
C        0.9655090911   -1.1137373733   -0.2169814090
C       -0.4515667677   -1.3947637716   -0.4765212127
C       -1.3749476909    0.3754128663   -0.0387421458
C       -0.5149003632    1.5988759219   -0.1990972210
N        0.8556398905    1.4802743718   -0.0485326610
H        2.6157350797    0.3476538284    0.2425290026
H        1.6722853203   -1.9325093804   -0.0435779391
H       -1.0413184593   -1.8021544705   -1.4114587616
H       -2.4433859258    0.1359627320   -0.2438145907
H       -0.9203491102    2.6058995087   -0.1538518339
C       -0.3062606983    0.1133313637    0.9623704809
H       -0.6223636449   -0.6619411496    1.6460761515
13   
From optimize.out: Frame 9 / 34, Energy=    -286.7646887803
C        1.5572155826    0.2442902412   -0.0096774079
C        0.9492705286   -1.1381353994   -0.2534689283
C       -0.4333975213   -1.4151138288   -0.5339316073
C       -1.3670632957    0.4030590649   -0.0580173733
C       -0.5283883560    1.6344010342   -0.2368577507
N        0.8623883341    1.4838840696   -0.0479339292
H        2.5817288080    0.3391541811    0.3100570669
H        1.6703883067   -1.9322125617   -0.0933373299
H       -1.0196006301   -1.8067865382   -1.3650067390
H       -2.4390581683    0.0994294851   -0.1677662317
H       -0.9001688875    2.6436074501   -0.1900850245
C       -0.3145613313    0.1370165980    0.9848030450
H       -0.6187533699   -0.6925937960    1.6612222098
13   
From optimize.out: Frame 8 / 34, Energy=    -286.7510723139
C        1.5436464836    0.2427369054   -0.0001150905
C        0.9288425502   -1.1410090879   -0.2782909010
C       -0.4315382904   -1.4016186771   -0.5783872045
C       -1.3458962764    0.4024739063   -0.0656027723
C       -0.5314305793    1.6446371000   -0.2629876170
N        0.8639276500    1.4899411218   -0.0489940272
H        2.5555889121    0.3283466995    0.3604351571
H        1.6515837572   -1.9326102528   -0.1312949872
H       -1.0052711205   -1.7869633281   -1.3518989618
H       -2.4063783026    0.0617965514   -0.1186654388
H       -0.8948090661    2.6543110480   -0.2293457076
C       -0.3202547108    0.1449916021    1.0098900341
H       -0.6080110070   -0.7070335886    1.6952575168
13   
From optimize.out: Frame 6 / 34, Energy=    -286.7147976360
C        1.5342702117    0.2463964435    0.0100703805
C        0.9023335979   -1.1187720044   -0.2829986807
C       -0.4548618513   -1.3422803943   -0.6035650900
C       -1.3065516026    0.3611536872   -0.0548039707
C       -0.5204675415    1.6154756792   -0.2747942183
N        0.8674018961    1.4949224129   -0.0515494206
H        2.5422551999    0.3178435288    0.3835638663
H        1.6043990470   -1.9271925187   -0.1322385055
H       -1.0226558511   -1.7116031225   -1.3914097455
H       -2.3569614722   -0.0004880306   -0.1113827152
H       -0.9050401702    2.6162305966   -0.2687559825
C       -0.3005795156    0.1445927402    1.0392226618
H       -0.5835419481   -0.6962790181    1.7386414202
13   
From optimize.out: Frame 5 / 34, Energy=    -286.6920170815
C        1.5248937479    0.2500560907    0.0202556693
C        0.8758248673   -1.0965350196   -0.2877071891
C       -0.4781842252   -1.2829426701   -0.6287447430
C       -1.2672075945    0.3198335325   -0.0440033782
C       -0.5095041789    1.5863138158   -0.2866004455
N        0.8708765316    1.4999034299   -0.0541052643
H        2.5289207456    0.3073408167    0.4066928038
H        1.5572141106   -1.9217746252   -0.1331824427
H       -1.0400387689   -1.6362441138   -1.4309225187
H       -2.3075454939   -0.0627725898   -0.1040974187
H       -0.9152701353    2.5781492723   -0.3081666529
C       -0.2809052597    0.1441948789    1.0685557228
H       -0.5590743466   -0.6855228183    1.7820258571
13   
From optimize.out: Frame 3 / 34, Energy=    -286.6361401641
C        1.5155170913    0.2537158489    0.0304407708
C        0.8493163633   -1.0742981374   -0.2924164460
C       -0.5015053776   -1.2236055246   -0.6539262276
C       -1.2278642764    0.2785134454   -0.0332009383
C       -0.4985404839    1.5571514917   -0.2984062840
N        0.8743515752    1.5048841589   -0.0566615784
H        2.5155855328    0.2968385772    0.4298219825
H        1.5100289334   -1.9163565655   -0.1341267958
H       -1.0574198232   -1.5608863469   -1.4704373582
H       -2.2581304046   -0.1250571229   -0.0968094638
H       -0.9254989349    2.5400670406   -0.3475777200
C       -0.2612319618    0.1437980582    1.0978892244
H       -0.5346082337   -0.6747649236    1.8254108343
13   
From optimize.out: Frame 2 / 34, Energy=    -286.6015441328
C        1.5061402412    0.2573757196    0.0406256793
C        0.8228080908   -1.0520613615   -0.2971264719
C       -0.5248252717   -1.1642689785   -0.6791096104
C       -1.1885216737    0.2371934291   -0.0223965918
C       -0.4875764491    1.5279886879   -0.3102117182
N        0.8778270470    1.5098645849   -0.0592183842
H        2.5022495448    0.2863368248    0.4529514156
H        1.4628434994   -1.9109383321   -0.1350715613
H       -1.0747989606   -1.4855298682   -1.5099543444
H       -2.2087162435   -0.1873416265   -0.0895187606
H       -0.9357265414    2.5019838657   -0.3869891850
C       -0.2415596413    0.1434023200    1.1272231740
H       -0.5101436420   -0.6640052653    1.8687963590
13   
From optimize.out: Frame 1 / 34, Energy=    -286.5637887220
C        1.4937748599    0.2587471176    0.0506488991
C        0.7985047630   -1.0336785214   -0.3040019606
C       -0.5424315895   -1.1115148744   -0.7113562182
C       -1.1540156945    0.2011450411   -0.0065808830
C       -0.4779479823    1.4999094543   -0.3217506574
N        0.8791517881    1.5126061927   -0.0640412180
H        2.4845270740    0.2748992742    0.4781464901
H        1.4191392671   -1.9076429752   -0.1365592439
H       -1.0807517301   -1.4187888448   -1.5586582656
H       -2.1663677943   -0.2389695450   -0.0730582401
H       -0.9442867359    2.4655218731   -0.4260457467
C       -0.2227515797    0.1458819857    1.1580466375
H       -0.4865446458   -0.6481161779    1.9152104067
13   
C5H5N+CH->C6H6N atoms 1-13 frame 105 charge +0.000 sz -1.000 sz^2 0.523
C        1.4691693476    0.2507449275    0.0600100448
C        0.7832320867   -1.0310806504   -0.3197445063
C       -0.5366390650   -1.0857199854   -0.7725258167
C       -1.1393180872    0.1866887420    0.0297540206
C       -0.4737907841    1.4762701098   -0.3321990530
N        0.8716662163    1.5061788830   -0.0781434849
H        2.4488402109    0.2596273387    0.5118003868
H        1.3896945708   -1.9130433505   -0.1402700287
H       -1.0399087083   -1.3873316144   -1.6449817738
H       -2.1529573964   -0.2469489229   -0.0190494548
H       -0.9460208824    2.4357031852   -0.4636466232
C       -0.2074806847    0.1601351445    1.1949694913
H       -0.4664868241   -0.6112238070    1.9740267979
13   
C5H5N+CH->C6H6N atoms 1-13 frame 106 charge -0.000 sz -1.000 sz^2 0.519
C        1.4445634164    0.2427428884    0.0693702671
C        0.7679600547   -1.0284831136   -0.3354879609
C       -0.5308438160   -1.0599263437   -0.8336958789
C       -1.1246221349    0.1722333066    0.0660899621
C       -0.4696330672    1.4526305997   -0.3426465108
N        0.8641813657    1.4997512231   -0.0922457493
H        2.4131518282    0.2443559952    0.5454530065
H        1.3602499086   -1.9184438282   -0.1439823175
H       -0.9990618517   -1.3558761048   -1.7313043233
H       -2.1395494698   -0.2549269640    0.0349601222
H       -0.9477532356    2.4058837782   -0.5012465445
C       -0.1922114006    0.1743889549    1.2318927405
H       -0.4464315978   -0.5743303918    2.0328431868
13   
C5H5N+CH->C6H6N atoms 1-13 frame 108 charge +0.000 sz -1.000 sz^2 0.505
C        1.4199570657    0.2347409972    0.0787295657
C        0.7526886644   -1.0258859037   -0.3512323209
C       -0.5250458427   -1.0341339234   -0.8948663943
C       -1.1099278380    0.1577787197    0.1024269332
C       -0.4654748323    1.4289909288   -0.3530930419
N        0.8566972386    1.4933232180   -0.1063480128
H        2.3774619247    0.2290852297    0.5791043477
H        1.3308052742   -1.9238444049   -0.1476961087
H       -0.9582111603   -1.3244222851   -1.8176259037
H       -2.1261440140   -0.2629036878    0.0889704839
H       -0.9494837959    2.3760636709   -0.5388455253
C       -0.1769437236    0.1886433996    1.2688163900
H       -0.4263789608   -0.5374359590    2.0916595872
13   
C5H5N+CH->C6H6N atoms 1-13 frame 109 charge +0.000 sz -1.000 sz^2 0.500
C        1.3904345384    0.2341705554    0.0869764653
C        0.7378979615   -1.0171704623   -0.3482511075
C       -0.5285176624   -0.9960812891   -0.8938236687
C       -1.0851642879    0.1436500149    0.1063084107
C       -0.4542885058    1.4135834397   -0.3672362087
N        0.8453647362    1.4932956858   -0.1217256387
H        2.3449472303    0.2249621997    0.5964232436
H        1.3082274730   -1.9227609137   -0.1461556468
H       -0.9528251889   -1.2832536264   -1.8311404246
H       -2.1041020650   -0.2610361395    0.0959522661
H       -0.9442493627    2.3580322407   -0.5646452070
C       -0.1559073015    0.1672642948    1.2808724460
H       -0.4018175651   -0.5546560001    2.1064450702
13   
C5H5N+CH->C6H6N atoms 1-13 frame 111 charge +0.000 sz -1.000 sz^2 0.507
C        1.3559358884    0.2411232793    0.0940978840
C        0.7235935595   -1.0022612750   -0.3263128606
C       -0.5413744148   -0.9456167171   -0.8297998174
C       -1.0502066989    0.1298504595    0.0773335416
C       -0.4359880624    1.4065096378   -0.3851223761
N        0.8301360899    1.4997480119   -0.1383944414
H        2.3156484843    0.2321238359    0.5972088540
H        1.2926008233   -1.9151134627   -0.1392953224
H       -0.9833432291   -1.2322489463   -1.7709501204
H       -2.0733156424   -0.2492036752    0.0553259627
H       -0.9319654485    2.3519354105   -0.5785007100
C       -0.1290304914    0.1098117204    1.2677533033
H       -0.3726908578   -0.6266582788    2.0766561026
13   
C5H5N+CH->C6H6N atoms 1-13 frame 112 charge +0.000 sz -1.000 sz^2 0.520
C        1.3491452516    0.2408871367    0.0881610761
C        0.7490705532   -1.0066343185   -0.3193615542
C       -0.5185758396   -0.9544133936   -0.7807008082
C       -1.0625927970    0.1480399862    0.0623905556
C       -0.4351068097    1.4166282639   -0.3844915343
N        0.8161394084    1.4966202824   -0.1468098459
H        2.3181073878    0.2446744352    0.5737397990
H        1.3360448517   -1.9124001965   -0.1502224468
H       -0.9832688408   -1.2474165768   -1.7154163263
H       -2.0924411619   -0.1969659518    0.0335324160
H       -0.9161145118    2.3730140387   -0.5685086322
C       -0.1514469893    0.0716819816    1.2577351362
H       -0.4089605025   -0.6737156875    2.0499521650
13   
C5H5N+CH->C6H6N atoms 1-13 frame 113 charge +0.000 sz -1.000 sz^2 0.537
C        1.3522387684    0.2380865193    0.0775660265
C        0.7887387188   -1.0178860599   -0.3177570934
C       -0.4830575571   -0.9843518283   -0.7369275644
C       -1.0918679927    0.1776415488    0.0524544064
C       -0.4404390893    1.4328797294   -0.3772548886
N        0.8025824436    1.4900748711   -0.1522812719
H        2.3318945891    0.2591482551    0.5416191152
H        1.4005607788   -1.9114465675   -0.1674949356
H       -0.9722804124   -1.2861921122   -1.6615453399
H       -2.1293723222   -0.1303136510    0.0184593656
H       -0.8989903788    2.4037864884   -0.5500094259
C       -0.1914480035    0.0404459436    1.2488229082
H       -0.4685595427   -0.7118731369    2.0243486978
13   
From optimize.out: Frame 2 / 24, Energy=    -286.6491115880
C        1.3553321744    0.2352860282    0.0669710107
C        0.8284067844   -1.0291379688   -0.3161532056
C       -0.4475385529   -1.0142918843   -0.6931557955
C       -1.1211434413    0.2072436293    0.0425195673
C       -0.4457709238    1.4491308830   -0.3700180709
N        0.7890257981    1.4835293752   -0.1577530419
H        2.3456811864    0.2736229815    0.5094991392
H        1.4650760245   -1.9104923754   -0.1847675234
H       -0.9612909584   -1.3249699324   -1.6076757873
H       -2.1663040429   -0.0636604409    0.0033890447
H       -0.8818654325    2.4345583510   -0.5315102312
C       -0.2314492497    0.0092104975    1.2399100624
H       -0.5281593663   -0.7500291437    1.9987448314
13   
From optimize.out: Frame 3 / 24, Energy=    -286.6721216232
C        1.3503021339    0.2340835865    0.0679088695
C        0.8526547956   -1.0366659678   -0.3154548442
C       -0.4281860097   -1.0413954803   -0.6643708761
C       -1.1363100795    0.2319473757    0.0361714107
C       -0.4487233706    1.4650242232   -0.3678910030
N        0.7810082693    1.4822417863   -0.1650208181
H        2.3480720773    0.2817354917    0.4963650504
H        1.5099400023   -1.9077191265   -0.2011501701
H       -0.9557750836   -1.3647526922   -1.5718867200
H       -2.1879275187   -0.0083682660   -0.0020807019
H       -0.8711260769    2.4600031494   -0.5228467711
C       -0.2533040456   -0.0152191972    1.2322319777
H       -0.5606250937   -0.7809148830    1.9780245961
13   
From optimize.out: Frame 5 / 24, Energy=    -286.7106062759
C        1.3127800707    0.2392729318    0.1149762945
C        0.8152253128   -1.0292984126   -0.3183765580
C       -0.4734992894   -1.0571482767   -0.6955256492
C       -1.0950428702    0.2370569468    0.0441647346
C       -0.4421602334    1.4794873459   -0.3862027562
N        0.7951452158    1.5019851285   -0.1794712310
H        2.3048842173    0.2643973087    0.5591692437
H        1.4762042351   -1.8976720929   -0.2139731086
H       -0.9721562042   -1.4085472196   -1.6084113169
H       -2.1483185734    0.0014788717    0.0308406085
H       -0.8859309168    2.4641423769   -0.5535244594
C       -0.2025750361   -0.0124290916    1.2294948216
H       -0.4845559283   -0.7827258168    1.9768393764
13   
From optimize.out: Frame 6 / 24, Energy=    -286.7440823765
C        1.2902260428    0.2333039016    0.1550872826
C        0.7927234163   -1.0306748504   -0.3196977112
C       -0.4936436177   -1.0314951844   -0.7350115659
C       -1.0762442924    0.2266391946    0.0606904401
C       -0.4485039601    1.4688151842   -0.4116442735
N        0.8009459393    1.5013095620   -0.1961001599
H        2.2721082566    0.2446465986    0.6209909026
H        1.4373938885   -1.9093674095   -0.2134411792
H       -0.9756688906   -1.3742496701   -1.6567502025
H       -2.1319668934   -0.0044856514    0.0777011650
H       -0.9083148995    2.4420060124   -0.5987996273
C       -0.1551797499   -0.0024713208    1.2274133170
H       -0.4038752400   -0.7639763668    1.9895616121
13   
From optimize.out: Frame 7 / 24, Energy=    -286.7734394401
C        1.2699223534    0.2256579782    0.1941523367
C        0.7724655741   -1.0333660017   -0.3207781060
C       -0.5100037998   -0.9996175348   -0.7757506196
C       -1.0608239193    0.2138874379    0.0784993908
C       -0.4567879854    1.4543634909   -0.4381576080
N        0.8054936557    1.4975634212   -0.2130568452
H        2.2408975182    0.2245343675    0.6826649171
H        1.3978200115   -1.9243315898   -0.2109009190
H       -0.9772468419   -1.3282122511   -1.7068661271
H       -2.1191120653   -0.0128259883    0.1266579336
H       -0.9318380266    2.4159184191   -0.6462692737
C       -0.1082854538    0.0085638875    1.2254302605
H       -0.3225010208   -0.7421356366    2.0043746599
13   
From optimize.out: Frame 9 / 24, Energy=    -286.8090541289
C        1.2236252722    0.2213489002    0.2492857777
C        0.7528631706   -1.0389866255   -0.3213812726
C       -0.5309366244   -0.9971545641   -0.7942139226
C       -1.0420236714    0.2185295987    0.0868545771
C       -0.4558021518    1.4585857364   -0.4610669508
N        0.8090640296    1.4962522120   -0.2396597700
H        2.1889417982    0.2173035754    0.7490627077
H        1.3773628179   -1.9303550799   -0.2217496516
H       -0.9870299326   -1.3326379949   -1.7266660341
H       -2.1042546710    0.0128788543    0.1698147066
H       -0.9367103293    2.4127976777   -0.6865994272
C       -0.0563883295    0.0050511101    1.2069436657
H       -0.2387113785   -0.7436134004    1.9893755942
13   
From optimize.out: Frame 10 / 24, Energy=    -286.8230493891
C        1.2019379285    0.2138853225    0.3083030505
C        0.7720835780   -1.0412221043   -0.3460361801
C       -0.5305500531   -0.9997310760   -0.7951630074
C       -1.0493894750    0.2170302973    0.0954400314
C       -0.4550707490    1.4535101455   -0.4723539222
N        0.8154323594    1.4840827278   -0.2537084332
H        2.1751826165    0.2197674677    0.7927069270
H        1.4162158622   -1.9201175624   -0.3013812130
H       -0.9947803393   -1.3355033246   -1.7205752624
H       -2.1201254603    0.0511647022    0.1917322238
H       -0.9322283531    2.3997374138   -0.7309333858
C       -0.0606616028   -0.0018929567    1.2229309260
H       -0.2380463120   -0.7407110528    2.0090382455
13   
From optimize.out: Frame 12 / 24, Energy=    -286.8405214169
C        1.1854402165    0.1965929713    0.3592157247
C        0.8046946578   -1.0415007547   -0.3898954621
C       -0.5175986997   -1.0061556008   -0.7903472764
C       -1.0593549181    0.2122346312    0.1019593780
C       -0.4523173798    1.4489233758   -0.4733177019
N        0.8177992461    1.4721107315   -0.2429410416
H        2.1676826285    0.2149845923    0.8257545871
H        1.4738978665   -1.8998069557   -0.4162890349
H       -1.0003227113   -1.3418998430   -1.7035364501
H       -2.1378411707    0.0761996232    0.1885565496
H       -0.9268405926    2.3834787693   -0.7713156044
C       -0.0865794359    0.0056054838    1.2605763474
H       -0.2686597073   -0.7207670242    2.0515799847
13   
From optimize.out: Frame 13 / 24, Energy=    -286.8455816218
C        1.1659112688    0.1763284380    0.4091455462
C        0.8278800771   -1.0436711615   -0.4290060464
C       -0.5057694297   -0.9971952150   -0.7722595971
C       -1.0605632336    0.2038548347    0.0972758551
C       -0.4457160981    1.4511919069   -0.4744104929
N        0.8197428611    1.4646331629   -0.2318946654
H        2.1549181855    0.2171479590    0.8607028375
H        1.5094740897   -1.8850632676   -0.5264425727
H       -1.0141184331   -1.3477839189   -1.6627077622
H       -2.1450019989    0.0900190125    0.1718800366
H       -0.9235593720    2.3709887333   -0.8075225661
C       -0.1018044134    0.0104989290    1.2871462401
H       -0.2813935032   -0.7109494134    2.0780931873
13   
From optimize.out: Frame 15 / 24, Energy=    -286.8495260980
C        1.1476856735    0.1602924653    0.4545735852
C        0.8405700344   -1.0389876490   -0.4556489189
C       -0.4913347265   -0.9760933052   -0.7469840373
C       -1.0661895796    0.1944698610    0.0880986450
C       -0.4338615293    1.4524971290   -0.4794431343
N        0.8291089059    1.4560022940   -0.2390625111
H        2.1406394168    0.2292271420    0.8963014046
H        1.5250670544   -1.8634447383   -0.6182696164
H       -1.0236594394   -1.3656048648   -1.6044882999
H       -2.1540376986    0.1127841006    0.1689511737
H       -0.9132880372    2.3615345151   -0.8352744207
C       -0.1121278967    0.0003502376    1.2916456330
H       -0.2885721775   -0.7230271873    2.0796004970
13   
From optimize.out: Frame 16 / 24, Energy=    -286.8509243224
C        1.1207780698    0.1430206261    0.4811907940
C        0.8606863950   -1.0186270503   -0.4976745590
C       -0.4646320333   -0.9996054321   -0.7513244824
C       -1.0859193227    0.1993453169    0.1008875210
C       -0.4195612787    1.4460945675   -0.4776501096
N        0.8389094769    1.4427249456   -0.2352798242
H        2.1120455902    0.2127701583    0.9272255506
H        1.5732878900   -1.8056854533   -0.7135562926
H       -1.0007153653   -1.4263599294   -1.5896027448
H       -2.1739350367    0.1549073694    0.1937376986
H       -0.8875306888    2.3540234012   -0.8502493719
C       -0.1411211942    0.0064322038    1.3086954996
H       -0.3322925023   -0.7090407239    2.1036003205
13   
From optimize.out: Frame 17 / 24, Energy=    -286.8511511751
C        1.1221818277    0.1397213484    0.4972608147
C        0.8471393922   -1.0108146576   -0.4965174394
C       -0.4709931650   -0.9769635710   -0.7591259309
C       -1.0756241817    0.1836297993    0.0839461903
C       -0.4057353660    1.4577492718   -0.4572183336
N        0.8451676170    1.4650459399   -0.2043798981
H        2.1126838866    0.1911467989    0.9450320171
H        1.5772336281   -1.7515700260   -0.7982277332
H       -1.0123461177   -1.5009437794   -1.5377877526
H       -2.1634150606    0.1766080732    0.1847839149
H       -0.8868043046    2.3369686406   -0.8778231178
C       -0.1527517544    0.0090396399    1.3185245092
H       -0.3367364016   -0.7196174781    2.1015327596
13   
From optimize.out: Frame 19 / 24, Energy=    -286.8515658299
C        1.1161116717    0.1455720555    0.4978604400
C        0.8340394523   -1.0065301538   -0.4761516214
C       -0.4781635104   -0.9676882978   -0.7550215376
C       -1.0748831515    0.1873824515    0.0667992182
C       -0.3945526365    1.4764249038   -0.4407448777
N        0.8595446742    1.4752996628   -0.2131774122
H        2.0961305674    0.1787121566    0.9672523338
H        1.5765283752   -1.7179246174   -0.8206980083
H       -1.0227555270   -1.5608072327   -1.4809648736
H       -2.1578937265    0.2021146911    0.1907263180
H       -0.8853091647    2.3409679896   -0.8831483313
C       -0.1472575380   -0.0011822346    1.2902597216
H       -0.3215394862   -0.7523413746    2.0570086305
13   
From optimize.out: Frame 20 / 24, Energy=    -286.8516119950
C        1.1213756878    0.1406285874    0.4945403187
C        0.8432453144   -1.0001408165   -0.4842733545
C       -0.4734305124   -0.9677247702   -0.7447585078
C       -1.0780124909    0.1881604924    0.0618717495
C       -0.3867698175    1.4805887736   -0.4310673153
N        0.8679271096    1.4790290120   -0.2005224907
H        2.0869138551    0.1598622050    0.9960329310
H        1.5943260173   -1.6686240873   -0.8873141170
H       -1.0351766910   -1.5951621317   -1.4290388303
H       -2.1606855794    0.2091911025    0.1807070067
H       -0.8794931625    2.3335194226   -0.8948577325
C       -0.1636306067    0.0028599508    1.2909102920
H       -0.3365891239   -0.7621877406    2.0477700502
13   
From optimize.out: Frame 22 / 24, Energy=    -286.8516562724
C        1.1132776419    0.1443496516    0.5051625343
C        0.8413380792   -0.9814870455   -0.5016920797
C       -0.4728531014   -0.9588529739   -0.7710896693
C       -1.0730169377    0.1858420896    0.0799180921
C       -0.3835749796    1.4738967444   -0.4240802091
N        0.8660408037    1.4868735910   -0.1816452610
H        2.0797787711    0.1294571934    1.0068466647
H        1.5932864906   -1.6485641783   -0.9083620487
H       -1.0309222639   -1.5982502831   -1.4459738974
H       -2.1566184795    0.2132721690    0.1967930659
H       -0.8787713539    2.2995466656   -0.9322207085
C       -0.1645043547    0.0104932972    1.3117502737
H       -0.3334603157   -0.7565769209    2.0645932430
13   
From optimize.out: Frame 23 / 24, Energy=    -286.8516580738
C        1.1178881981    0.1497835100    0.5078453086
C        0.8410762677   -0.9836897933   -0.4921764511
C       -0.4767717849   -0.9589245047   -0.7512812491
C       -1.0712978219    0.1923965751    0.0847483464
C       -0.3803129916    1.4742830019   -0.4233321458
N        0.8762625072    1.4746884065   -0.1995197849
H        2.0814817620    0.1377257463    1.0150195456
H        1.5945911380   -1.6384676415   -0.9158066189
H       -1.0402428180   -1.5828434925   -1.4364036226
H       -2.1552459823    0.2134691380    0.1985642803
H       -0.8834027309    2.2890023599   -0.9414275433
C       -0.1689315856    0.0095212469    1.3096439707
H       -0.3350941578   -0.7769445526    2.0441259643
13   
From optimize.out: Frame 1 / 2, Energy=    -286.8516537540
C        1.1178881981    0.1497835100    0.5078453086
C        0.8410762677   -0.9836897933   -0.4921764511
C       -0.4767717848   -0.9589245046   -0.7512812491
C       -1.0712978219    0.1923965751    0.0847483464
C       -0.3803129916    1.4742830019   -0.4233321458
N        0.8762625072    1.4746884064   -0.1995197850
H        2.0814817621    0.1377257464    1.0150195456
H        1.5945911380   -1.6384676416   -0.9158066189
H       -1.0402428180   -1.5828434925   -1.4364036226
H       -2.1552459823    0.2134691380    0.1985642803
H       -0.8834027309    2.2890023599   -0.9414275433
C       -0.1689315856    0.0095212469    1.3096439707
H       -0.3350941578   -0.7769445526    2.0441259643
