13   
From optimize.out: Frame 1 / 3, Energy=    -286.8723841731
C        1.5318179793    0.2370986597   -0.7047426956
C       -0.2659769483   -1.2904815630    0.0260347494
C       -1.4968459983   -1.1572146930    0.6170769803
C       -1.7172412261    0.2390720343    0.8311195313
C       -0.6143868053    0.9087092562    0.3627893083
N        0.2790652730   -0.0256907711   -0.1311352704
H        2.0519708615   -0.6719711935   -1.0198636596
H        0.2803209602   -2.1638436377   -0.3022296997
H       -2.1676136538   -1.9663327029    0.8712621504
H       -2.5899229790    0.6955338118    1.2782888444
H       -0.3728597048    1.9601833690    0.3276108765
C        2.0816436518    1.4239297472   -0.8710821226
H        3.0000285897    1.8110076829   -1.2851289928
13   
From optimize.out: Frame 2 / 3, Energy=    -286.8723877668
C        1.5316750626    0.2378312289   -0.7058829635
C       -0.2656054340   -1.2895046129    0.0263520220
C       -1.4969571114   -1.1578810455    0.6172449588
C       -1.7181067345    0.2384414350    0.8306001474
C       -0.6154687800    0.9094947593    0.3629932075
N        0.2783493838   -0.0240799993   -0.1324123448
H        2.0517431049   -0.6707311958   -1.0213401019
H        0.2810517876   -2.1626863933   -0.3005325326
H       -2.1673115701   -1.9677012582    0.8717416187
H       -2.5911382556    0.6942840716    1.2782180718
H       -0.3741040981    1.9614582781    0.3302060602
C        2.0828414212    1.4235355858   -0.8726239755
H        3.0030312236    1.8075391462   -1.2845641680
