13   
From optimize.out: Frame 1 / 2, Energy=    -286.8383800305
C        1.5231702074    0.3848421666   -0.2302202023
C        0.6818835944   -0.8596597199    0.0261073198
C       -0.6337825769   -0.5169814233   -0.7614113212
C       -1.1586708176    0.1354232450    0.5318720210
C       -0.5312376610    0.9630244680   -0.6810279451
N        0.8338895800    1.4116429241   -0.5732787156
H        2.5884165223    0.4562144810   -0.0161994091
H        1.1712917610   -1.8319383794   -0.0634436707
H       -1.1574084067   -1.1243740932   -1.4936532733
H       -2.1730857514    0.3727486115    0.8369039720
H       -1.2330231675    1.6128152464   -1.1936439812
C       -0.1138591228   -0.5385726553    1.2900726753
H        0.2024158383   -0.4651848709    2.3279225299
13   
From optimize.out: Frame 26 / 27, Energy=    -286.8383800304
C        1.5231702074    0.3848421666   -0.2302202023
C        0.6818835944   -0.8596597199    0.0261073198
C       -0.6337825769   -0.5169814233   -0.7614113212
C       -1.1586708176    0.1354232450    0.5318720210
C       -0.5312376610    0.9630244680   -0.6810279451
N        0.8338895800    1.4116429241   -0.5732787156
H        2.5884165223    0.4562144810   -0.0161994091
H        1.1712917610   -1.8319383794   -0.0634436707
H       -1.1574084067   -1.1243740932   -1.4936532733
H       -2.1730857514    0.3727486115    0.8369039720
H       -1.2330231675    1.6128152464   -1.1936439812
C       -0.1138591228   -0.5385726553    1.2900726753
H        0.2024158383   -0.4651848709    2.3279225299
13   
From optimize.out: Frame 24 / 27, Energy=    -286.8383641264
C        1.5246796880    0.3982091833   -0.2386821223
C        0.6896673779   -0.8498026218    0.0312970052
C       -0.6271552007   -0.5146924380   -0.7578125230
C       -1.1422501101    0.1736978612    0.5320965956
C       -0.5335110837    0.9687589424   -0.6861865756
N        0.8374281469    1.4183557236   -0.5877482967
H        2.5923278438    0.4683909478   -0.0338482743
H        1.1816059984   -1.8209670131   -0.0551106190
H       -1.1794346125   -1.1437646631   -1.4464634323
H       -2.1654641780    0.3721555811    0.8355479037
H       -1.2268877196    1.6098592795   -1.2213693196
C       -0.1007423724   -0.5171343829    1.2865012826
H        0.1497362221   -0.5630664002    2.3417783757
13   
From optimize.out: Frame 22 / 27, Energy=    -286.8382649297
C        1.5249806476    0.4137781712   -0.2289765997
C        0.7054504837   -0.8468097195    0.0330968151
C       -0.5788805276   -0.5200926584   -0.7934512505
C       -1.1149779697    0.2096502642    0.5347711079
C       -0.5341949624    0.9600107922   -0.6977382402
N        0.8384868611    1.4281306536   -0.5903872228
H        2.5918563759    0.4921460460   -0.0219679334
H        1.2106471708   -1.8109192575   -0.0541640074
H       -1.2742920159   -1.1330601084   -1.3494824199
H       -2.1487849364    0.3831722886    0.8171105521
H       -1.2244250670    1.5902544335   -1.2511874630
C       -0.1114253406   -0.5398988267    1.2712043256
H        0.1155592804   -0.6263620788    2.3311723364
13   
From optimize.out: Frame 18 / 27, Energy=    -286.8371736711
C        1.5255952313    0.4188356166   -0.2227425373
C        0.7117018993   -0.8509244970    0.0118515964
C       -0.5345039382   -0.5255235707   -0.8605339758
C       -1.1017937617    0.2329755934    0.5420808381
C       -0.5403923278    0.9509152753   -0.6994039022
N        0.8281730373    1.4320455802   -0.5826058090
H        2.5822738086    0.5150525287    0.0226941950
H        1.2321881663   -1.8058934341   -0.0827227430
H       -1.3112601941   -1.1723781769   -1.2423884516
H       -2.1288416938    0.4428335810    0.8275604484
H       -1.2252848278    1.5823760877   -1.2583065394
C       -0.1316838896   -0.5675928171    1.2415139756
H        0.0938284901   -0.6527217670    2.3030029048
13   
From optimize.out: Frame 16 / 27, Energy=    -286.8329641036
C        1.5230208235    0.4174908727   -0.2175370743
C        0.7060278626   -0.8538030802   -0.0176548871
C       -0.5255350972   -0.5213357375   -0.9211638830
C       -1.1009901886    0.2433754345    0.5384420978
C       -0.5445652512    0.9549930477   -0.6953637308
N        0.8197371967    1.4334873002   -0.5694403923
H        2.5673865529    0.5229034118    0.0716725567
H        1.2450531174   -1.7968092762   -0.1285207476
H       -1.2950964993   -1.2521241171   -1.1287409584
H       -2.1137820501    0.4983152127    0.8402136296
H       -1.2188937944    1.5991253799   -1.2524079194
C       -0.1491967329   -0.5874008442    1.2100556089
H        0.0868340607   -0.6582176044    2.2704456998
13   
From optimize.out: Frame 14 / 27, Energy=    -286.8273170374
C        1.5138955577    0.4102685748   -0.2114745644
C        0.6894681641   -0.8594214580   -0.0476921863
C       -0.5527683104   -0.5101192743   -0.9713050633
C       -1.1055025633    0.2430743928    0.5261140998
C       -0.5461000937    0.9663724945   -0.6934951690
N        0.8168071384    1.4339029599   -0.5552061980
H        2.5437949737    0.5143914407    0.1272713963
H        1.2547046374   -1.7847180582   -0.1791906519
H       -1.2466273539   -1.3386423711   -1.0315675706
H       -2.1002248697    0.5346299044    0.8545650625
H       -1.2098038459    1.6293331053   -1.2414155791
C       -0.1573002196   -0.5988144147    1.1831544310
H        0.0996567853   -0.6402572960    2.2402419930
13   
From optimize.out: Frame 11 / 27, Energy=    -286.8176372828
C        1.4930344729    0.3961080085   -0.2033875211
C        0.6619366676   -0.8749186690   -0.0727297815
C       -0.6043731761   -0.4926233400   -1.0213605677
C       -1.1081965358    0.2382260983    0.5180558537
C       -0.5485924254    0.9784718611   -0.7037817466
N        0.8208784610    1.4334655252   -0.5438227354
H        2.5052382112    0.4888978739    0.1924012635
H        1.2691794675   -1.7709591041   -0.2211733255
H       -1.1764603039   -1.4106096334   -0.9844261179
H       -2.0798543761    0.5534170551    0.8908235542
H       -1.2080223769    1.6614920921   -1.2335923828
C       -0.1547357666   -0.6020606578    1.1657466309
H        0.1299676806   -0.5989071100    2.2172468762
13   
From optimize.out: Frame 9 / 27, Energy=    -286.8070959025
C        1.4593679884    0.3758605785   -0.1933468991
C        0.6324966914   -0.9035338352   -0.0876696379
C       -0.6521396528   -0.4711698059   -1.0757770126
C       -1.1039333189    0.2262686491    0.5230944438
C       -0.5564706104    0.9896676735   -0.7326715703
N        0.8336710704    1.4348805616   -0.5367010297
H        2.4504787174    0.4529921930    0.2639600364
H        1.2951009087   -1.7588726709   -0.2417280263
H       -1.1216615101   -1.4409947778   -0.9959571063
H       -2.0489462695    0.5543620139    0.9493766440
H       -1.2189237210    1.6859082122   -1.2446935826
C       -0.1399929028   -0.6030958805    1.1639448644
H        0.1709526090   -0.5422729116    2.2081688761
13   
From optimize.out: Frame 7 / 27, Energy=    -286.7914497900
C        1.4217181927    0.3580123510   -0.1849464089
C        0.6095006673   -0.9333525063   -0.0932635762
C       -0.6843681075   -0.4488957484   -1.1309217534
C       -1.0951781667    0.2073245926    0.5384425207
C       -0.5702364592    1.0070042612   -0.7762842810
N        0.8648588235    1.4470433267   -0.5321514755
H        2.3938380559    0.4142537926    0.3268777855
H        1.3180267046   -1.7535095309   -0.2406572411
H       -1.0928740439   -1.4407552628   -1.0338090647
H       -2.0164969932    0.5331369242    1.0157987092
H       -1.2415969078    1.7061663687   -1.2794076633
C       -0.1168807042   -0.6053656610    1.1757833969
H        0.2096889385   -0.4910629077    2.2145390518
13   
From optimize.out: Frame 5 / 27, Energy=    -286.7678764937
C        1.3831375883    0.3502476478   -0.1821937779
C        0.5904819006   -0.9586274673   -0.0920359155
C       -0.7059514246   -0.4327902965   -1.1838414847
C       -1.0830441975    0.1848008122    0.5564665062
C       -0.5845376946    1.0346791840   -0.8274104545
N        0.9135067650    1.4715777669   -0.5294208785
H        2.3417285986    0.3824359825    0.3729657854
H        1.3276333238   -1.7575693634   -0.2247487000
H       -1.0809452636   -1.4311803462   -1.0766695761
H       -1.9844458366    0.4961211408    1.0790635600
H       -1.2695999553    1.7310594822   -1.3326437037
C       -0.0895187838   -0.6126742881    1.2001267348
H        0.2415549797   -0.4580802548    2.2403419046
13   
From optimize.out: Frame 3 / 27, Energy=    -286.7237097020
C        1.3317155905    0.3493575459   -0.1838971075
C        0.5659033549   -0.9840336090   -0.0885615430
C       -0.7158594697   -0.4255295621   -1.2324392024
C       -1.0606331117    0.1651339469    0.5668844120
C       -0.5895016304    1.0637615558   -0.8745729047
N        0.9510413840    1.4987437927   -0.5260951541
H        2.2760963448    0.3655266132    0.4102700161
H        1.3211656278   -1.7712917194   -0.2030728800
H       -1.0680547302   -1.4230295940   -1.1155850951
H       -1.9415249254    0.4630255671    1.1284613662
H       -1.2888038613    1.7615987925   -1.3864084876
C       -0.0588430017   -0.6246182528    1.2284737954
H        0.2772984285   -0.4386450767    2.2765427845
13   
C6H6N->C6H6N atoms 1-13 frame 213 charge +0.000 sz -1.000 sz^2 0.724
C        1.3015524705    0.3474948104   -0.1880283097
C        0.5575848634   -0.9915669936   -0.0777144168
C       -0.7033851296   -0.4274073634   -1.2314139661
C       -1.0400968438    0.1631023200    0.5791465343
C       -0.5891423339    1.0743671490   -0.8907690625
N        0.9488900477    1.5122794315   -0.5125812828
H        2.2665884101    0.3836533276    0.3699350702
H        1.3171407044   -1.7586116236   -0.2152913605
H       -1.0522305254   -1.4221039312   -1.0953622798
H       -1.9236589807    0.4756311056    1.1335419415
H       -1.2683340687    1.7655093298   -1.4245493020
C       -0.0668831028   -0.6640226300    1.2367224734
H        0.2519744889   -0.4583249321    2.3163639608
13   
C6H6N->C6H6N atoms 1-13 frame 215 charge -0.000 sz -1.000 sz^2 0.697
C        1.2982356893    0.3455697389   -0.1887602572
C        0.5685967144   -0.9827670626   -0.0586545413
C       -0.6769799924   -0.4344171661   -1.1944883063
C       -1.0264730217    0.1727252140    0.5981582655
C       -0.5898850268    1.0728782960   -0.8880640048
N        0.9252357117    1.5182624781   -0.4935368983
H        2.3047485565    0.4200281965    0.2778146782
H        1.3215907271   -1.7274369504   -0.2481232938
H       -1.0515384528   -1.4292166605   -1.0480764056
H       -1.9309795496    0.5167854561    1.1105565533
H       -1.2247796774    1.7482634021   -1.4500900687
C       -0.1001288104   -0.7166939258    1.2353243314
H        0.1823571322   -0.5039810164    2.3479399475
13   
C6H6N->C6H6N atoms 1-13 frame 217 charge +0.000 sz -1.000 sz^2 0.670
C        1.3152775213    0.3479519595   -0.1851980861
C        0.5878806627   -0.9659830332   -0.0416054823
C       -0.6517639275   -0.4431595680   -1.1523595585
C       -1.0230134612    0.1850900956    0.6146301193
C       -0.5906705439    1.0635148714   -0.8765001502
N        0.8995802839    1.5180458893   -0.4806970046
H        2.3509899795    0.4482496811    0.2019617849
H        1.3306287533   -1.7050710467   -0.2727992624
H       -1.0693627224   -1.4352503260   -1.0130445103
H       -1.9462769472    0.5543026870    1.0816749468
H       -1.1927834911    1.7277758712   -1.4591135405
C       -0.1308284207   -0.7495766243    1.2324397316
H        0.1203423132   -0.5458904569    2.3506110124
13   
From optimize.out: Frame 3 / 26, Energy=    -286.7396552024
C        1.3842991586    0.3576327317   -0.1822594673
C        0.6149289353   -0.9367590290   -0.0518310704
C       -0.6450027421   -0.4523765612   -1.1158567783
C       -1.0550414687    0.2027145035    0.6062920359
C       -0.5885505457    1.0274660885   -0.8287630209
N        0.8718701979    1.4844727434   -0.4889864201
H        2.4184764577    0.4491620915    0.1958029318
H        1.3430158466   -1.7035977852   -0.2809266943
H       -1.0974610490   -1.4288787972   -0.9873438446
H       -1.9867576781    0.5745542640    1.0427799650
H       -1.2006918854    1.6983936544   -1.4057489478
C       -0.1568436871   -0.7179318008    1.2047135104
H        0.0977584599   -0.5548521037    2.2921278006
13   
From optimize.out: Frame 5 / 26, Energy=    -286.7803670615
C        1.4348782417    0.3737212508   -0.1832673734
C        0.6364054042   -0.9087684089   -0.0611157297
C       -0.6145017325   -0.4740045346   -1.0788049672
C       -1.0750178400    0.2303634024    0.5868292764
C       -0.5753324684    0.9875660016   -0.7708828423
N        0.8300849920    1.4530167333   -0.4989559514
H        2.4654791157    0.4700736357    0.1795608946
H        1.3324267624   -1.7159315851   -0.2799664589
H       -1.1230539180   -1.4242100702   -0.9685151450
H       -2.0165861911    0.6071047236    0.9879158916
H       -1.1986917359    1.6648001009   -1.3376038077
C       -0.1796339112   -0.6858667302    1.1785855506
H        0.0835432811   -0.5778645194    2.2462206622
13   
From optimize.out: Frame 7 / 26, Energy=    -286.8024337556
C        1.4792930460    0.3962808063   -0.1925611509
C        0.6633674912   -0.8800696336   -0.0599048353
C       -0.5616659407   -0.5035527436   -1.0471823414
C       -1.0903072472    0.2602177912    0.5721514570
C       -0.5664087493    0.9570014360   -0.7198044623
N        0.8068447644    1.4351134400   -0.5184107065
H        2.5122658399    0.4998729223    0.1447938357
H        1.3037043230   -1.7429031514   -0.2506038902
H       -1.1623606477   -1.4034547014   -0.9824564632
H       -2.0475364531    0.6263967017    0.9406136985
H       -1.2071113732    1.6294208898   -1.2799791626
C       -0.1951572297   -0.6538084689    1.1656976470
H        0.0650721763   -0.6205152883    2.2276463742
13   
From optimize.out: Frame 9 / 26, Energy=    -286.8166642223
C        1.5076981044    0.4164494391   -0.2063625678
C        0.6898439818   -0.8583038505   -0.0465872009
C       -0.4971250182   -0.5291851619   -1.0280626537
C       -1.0969223986    0.2869795077    0.5831804523
C       -0.5653827517    0.9323092398   -0.6944132107
N        0.7990889662    1.4292391343   -0.5455797986
H        2.5476352092    0.5267296539    0.0980849291
H        1.2732524616   -1.7704918928   -0.1905112545
H       -1.1994022689   -1.3547275130   -1.0488350222
H       -2.0661776950    0.6333310155    0.9376062572
H       -1.2248492262    1.5890252396   -1.2557583131
C       -0.2046187762   -0.6254921924    1.1686732476
H        0.0369594117   -0.6758626194    2.2285651351
13   
From optimize.out: Frame 11 / 26, Energy=    -286.8290227617
C        1.5235746550    0.4313327406   -0.2196295676
C        0.7069518441   -0.8430165540   -0.0363573274
C       -0.4370793031   -0.5527845537   -1.0331276007
C       -1.0985387377    0.3200752174    0.6124974626
C       -0.5702766484    0.9035842062   -0.6797317135
N        0.7910205544    1.4231395034   -0.5704159844
H        2.5694333695    0.5480766272    0.0557116177
H        1.2464321376   -1.7884118417   -0.1286436777
H       -1.1986101514   -1.3180945579   -1.1347270549
H       -2.0653336237    0.6603431895    0.9788248278
H       -1.2475800717    1.5459254770   -1.2392051024
C       -0.2183748957   -0.5966595254    1.1705733067
H       -0.0016191290   -0.7335099287    2.2242308137
13   
From optimize.out: Frame 14 / 26, Energy=    -286.8438052471
C        1.5328458908    0.4430751309   -0.2288611176
C        0.7177424825   -0.8315562838   -0.0302522219
C       -0.3832101979   -0.5754192606   -1.0545578555
C       -1.1003385129    0.3552061893    0.6497692153
C       -0.5778943680    0.8715221132   -0.6687347511
N        0.7829095781    1.4157489848   -0.5917920977
H        2.5823266152    0.5659520122    0.0250839927
H        1.2206784979   -1.8001192723   -0.0731623544
H       -1.1778935492   -1.2940911715   -1.2237795133
H       -2.0548079822    0.6987473586    1.0425699887
H       -1.2699161567    1.5027882674   -1.2253581288
C       -0.2350836328   -0.5662290900    1.1693677848
H       -0.0373586650   -0.7856249783    2.2097070586
13   
From optimize.out: Frame 16 / 26, Energy=    -286.8491448485
C        1.5328327626    0.4530703908   -0.2329168920
C        0.7242670981   -0.8262500698   -0.0204590892
C       -0.3418707771   -0.5944261494   -1.0773165164
C       -1.0983087170    0.3914185441    0.6888756481
C       -0.5888464154    0.8418657445   -0.6674547291
N        0.7739863340    1.4125029116   -0.6087059766
H        2.5869030672    0.5800841177   -0.0020848557
H        1.2085961401   -1.8050728221   -0.0160938487
H       -1.1551644442   -1.2731249708   -1.3153313707
H       -2.0333641936    0.7440981783    1.1149029270
H       -1.2907875506    1.4617778136   -1.2265362359
C       -0.2471705968   -0.5400839835    1.1708601959
H       -0.0710727074   -0.8458597050    2.1922607433
13   
From optimize.out: Frame 18 / 26, Energy=    -286.8509481251
C        1.5230621800    0.4609150217   -0.2364737777
C        0.7238320711   -0.8259581468   -0.0075342891
C       -0.3167164935   -0.6068178816   -1.0946235305
C       -1.0875463156    0.4269890330    0.7231498890
C       -0.6041766542    0.8214815783   -0.6699840839
N        0.7646205360    1.4161684409   -0.6202629614
H        2.5844853242    0.5861226968   -0.0376695502
H        1.2158452695   -1.7989715149    0.0391674657
H       -1.1237346101   -1.2682072397   -1.3972512053
H       -1.9948789705    0.7969533275    1.1887503963
H       -1.3095946535    1.4300043821   -1.2374822839
C       -0.2505615255   -0.5233748976    1.1751444080
H       -0.1246361580   -0.9153047998    2.1750695229
13   
From optimize.out: Frame 21 / 26, Energy=    -286.8515232469
C        1.5079339417    0.4661153718   -0.2399515494
C        0.7157033035   -0.8281220367    0.0049013984
C       -0.3040422917   -0.6131718227   -1.1071329250
C       -1.0725405450    0.4561148722    0.7491769613
C       -0.6233683401    0.8117321250   -0.6714701225
N        0.7554544023    1.4227991080   -0.6277573655
H        2.5767932055    0.5858581077   -0.0754304957
H        1.2350576171   -1.7838274870    0.0797811657
H       -1.0783397533   -1.2904074581   -1.4578223033
H       -1.9397740291    0.8582526404    1.2607068814
H       -1.3257829927    1.4128888949   -1.2488133787
C       -0.2498920288   -0.5147866958    1.1792838044
H       -0.1972024894   -0.9834456198    2.1545279289
13   
From optimize.out: Frame 23 / 26, Energy=    -286.8516203310
C        1.4924954781    0.4686296758   -0.2386668955
C        0.7018295547   -0.8321985386    0.0098038434
C       -0.3062887079   -0.6123394570   -1.1171526151
C       -1.0642037958    0.4642143854    0.7603893916
C       -0.6434379822    0.8084683867   -0.6753720263
N        0.7459277006    1.4282235783   -0.6271576281
H        2.5650170156    0.5850215581   -0.0917700168
H        1.2616947405   -1.7648616478    0.0748420374
H       -1.0279307341   -1.3423659714   -1.4747452288
H       -1.8667086301    0.9312614340    1.3205251376
H       -1.3356406492    1.4130310818   -1.2588212749
C       -0.2535495895   -0.5229706831    1.1782055161
H       -0.2692044008   -1.0241138022    2.1399197593
13   
From optimize.out: Frame 25 / 26, Energy=    -286.8516452122
C        1.4905838781    0.4711775155   -0.2292302004
C        0.7027017720   -0.8341092217    0.0002850662
C       -0.3007350927   -0.6077747574   -1.1338531143
C       -1.0746136457    0.4509684029    0.7482589630
C       -0.6415991178    0.8072959350   -0.6825858995
N        0.7443936819    1.4315185571   -0.6151779547
H        2.5600656925    0.5909836336   -0.0641922198
H        1.2696991906   -1.7635565714    0.0537405531
H       -1.0517684345   -1.3480311925   -1.4047025931
H       -1.8666043165    0.9453307314    1.3000824204
H       -1.3276382186    1.4161472669   -1.2694561774
C       -0.2641273627   -0.5357495884    1.1643775688
H       -0.2403580266   -1.0242007111    2.1324535877
13   
From optimize.out: Frame 1 / 2, Energy=    -286.8516486485
C        1.4905838781    0.4711775155   -0.2292302004
C        0.7027017720   -0.8341092217    0.0002850662
C       -0.3007350927   -0.6077747574   -1.1338531143
C       -1.0746136457    0.4509684029    0.7482589630
C       -0.6415991178    0.8072959350   -0.6825858995
N        0.7443936819    1.4315185571   -0.6151779547
H        2.5600656925    0.5909836336   -0.0641922198
H        1.2696991906   -1.7635565714    0.0537405531
H       -1.0517684345   -1.3480311925   -1.4047025931
H       -1.8666043165    0.9453307314    1.3000824204
H       -1.3276382186    1.4161472669   -1.2694561774
C       -0.2641273627   -0.5357495884    1.1643775688
H       -0.2403580266   -1.0242007111    2.1324535877
