13   
From optimize.out: Frame 1 / 2, Energy=    -286.8383800305
C        1.5231702074    0.3848421666   -0.2302202023
C        0.6818835944   -0.8596597199    0.0261073198
C       -0.6337825769   -0.5169814233   -0.7614113212
C       -1.1586708176    0.1354232450    0.5318720210
C       -0.5312376610    0.9630244680   -0.6810279451
N        0.8338895800    1.4116429241   -0.5732787156
H        2.5884165223    0.4562144810   -0.0161994091
H        1.1712917610   -1.8319383794   -0.0634436707
H       -1.1574084067   -1.1243740932   -1.4936532733
H       -2.1730857514    0.3727486115    0.8369039720
H       -1.2330231675    1.6128152464   -1.1936439812
C       -0.1138591228   -0.5385726553    1.2900726753
H        0.2024158383   -0.4651848709    2.3279225299
13   
From optimize.out: Frame 26 / 27, Energy=    -286.8383800304
C        1.5247640895    0.4025753719   -0.2359602921
C        0.6940936140   -0.8489632881    0.0318017464
C       -0.6136169842   -0.5162068833   -0.7678070973
C       -1.1346018731    0.1837804031    0.5328466396
C       -0.5337028716    0.9663055990   -0.6894261405
N        0.8377250542    1.4210970186   -0.5884883608
H        2.5921956247    0.4750528606   -0.0305165350
H        1.1897503452   -1.8181492065   -0.0548451499
H       -1.2060365546   -1.1407626629   -1.4192659424
H       -2.1607866283    0.3752451219    0.8303773072
H       -1.2261970899    1.6043612693   -1.2297315612
C       -0.1037383188   -0.5235184752    1.2822113827
H        0.1401515930   -0.5808171283    2.3388040033
13   
From optimize.out: Frame 24 / 27, Energy=    -286.8383641264
C        1.5251823721    0.4154381738   -0.2269303968
C        0.7075023825   -0.8481603107    0.0261235085
C       -0.5643148237   -0.5218752438   -0.8154697771
C       -1.1106505243    0.2173063244    0.5371703767
C       -0.5362291202    0.9570253756   -0.6982849595
N        0.8351015603    1.4294156478   -0.5878331336
H        2.5887110951    0.4996646284   -0.0073085072
H        1.2177175601   -1.8092696342   -0.0635378257
H       -1.2864260610   -1.1459654567   -1.3143310247
H       -2.1422389767    0.4027548823    0.8205405159
H       -1.2247072658    1.5876685283   -1.2535241536
C       -0.1180747931   -0.5489888102    1.2614590781
H        0.1084265949   -0.6350141050    2.3219262991
13   
From optimize.out: Frame 18 / 27, Energy=    -286.8371736711
C        1.5246421706    0.4183377846   -0.2208154448
C        0.7096013381   -0.8519901651    0.0009281256
C       -0.5311836214   -0.5239732106   -0.8829795180
C       -1.1014962743    0.2368256747    0.5407337554
C       -0.5419371681    0.9524248902   -0.6979082074
N        0.8250500403    1.4325793133   -0.5777318956
H        2.5767624605    0.5179589710    0.0408262677
H        1.2369508456   -1.8025304263   -0.0996774291
H       -1.3052763008   -1.2019005850   -1.2003154926
H       -2.1232665266    0.4633732018    0.8322447293
H       -1.2229188303    1.5885767725   -1.2561228362
C       -0.1381672454   -0.5749258633    1.2298679064
H        0.0912391119   -0.6547563578    2.2909500393
13   
From optimize.out: Frame 16 / 27, Energy=    -286.8329641036
C        1.5193929542    0.4146195533   -0.2151268439
C        0.6994443369   -0.8560367401   -0.0295966099
C       -0.5363620188   -0.5168764852   -0.9410981678
C       -1.1027841425    0.2432557514    0.5335409403
C       -0.5451754480    0.9595170963   -0.6946208595
N        0.8185723135    1.4336525511   -0.5637814014
H        2.5580074107    0.5195193658    0.0937766057
H        1.2488902059   -1.7920022536   -0.1486652336
H       -1.2758269539   -1.2865205854   -1.0901084017
H       -2.1083922150    0.5127525954    0.8459192303
H       -1.2152799660    1.6111348579   -1.2480377701
C       -0.1524183805   -0.5919384591    1.1993606922
H        0.0919319033   -0.6510772479    2.2584378194
13   
From optimize.out: Frame 14 / 27, Energy=    -286.8273170374
C        1.5049413190    0.4041904110   -0.2080033492
C        0.6776507733   -0.8660733521   -0.0584391156
C       -0.5749187541   -0.5026094649   -0.9927904720
C       -1.1066589017    0.2409933512    0.5226552452
C       -0.5471698814    0.9715659261   -0.6979104941
N        0.8185546791    1.4337151991   -0.5503200551
H        2.5272451894    0.5034487939    0.1552271992
H        1.2609176932   -1.7788122791   -0.1972109458
H       -1.2165094325   -1.3695330007   -1.0113329652
H       -2.0914812083    0.5426939448    0.8701283562
H       -1.2090391830    1.6431367615   -1.2380576154
C       -0.1561994751   -0.6002078051    1.1756824515
H        0.1126671821   -0.6225084858    2.2303717602
13   
From optimize.out: Frame 11 / 27, Energy=    -286.8176372828
C        1.4773889354    0.3866985935   -0.1987214287
C        0.6482552792   -0.8882167505   -0.0796726532
C       -0.6265712825   -0.4826534225   -1.0466490569
C       -1.1062153274    0.2326692152    0.5203973946
C       -0.5522535869    0.9836747953   -0.7172074674
N        0.8268234610    1.4341231230   -0.5405131260
H        2.4797902998    0.4722117338    0.2256561603
H        1.2812257173   -1.7653422794   -0.2307255358
H       -1.1509941289   -1.4247302618   -0.9897848156
H       -2.0654907160    0.5538561977    0.9180344311
H       -1.2130884653    1.6728387869   -1.2387513485
C       -0.1478844415   -0.6025417480    1.1649093113
H        0.1490142560   -0.5725879831    2.2130281349
13   
From optimize.out: Frame 9 / 27, Energy=    -286.8070959025
C        1.4407101028    0.3670156384   -0.1891839181
C        0.6211006883   -0.9183108969   -0.0904417927
C       -0.6681109167   -0.4601315835   -1.1031047643
C       -1.0995945801    0.2168806555    0.5307003991
C       -0.5632924703    0.9982590633   -0.7542844623
N        0.8491266000    1.4409079909   -0.5344464342
H        2.4224096412    0.4337948340    0.2951398117
H        1.3064621092   -1.7562148915   -0.2411973836
H       -1.1073954764   -1.4408760828   -1.0147151765
H       -2.0328655744    0.5438436223    0.9822930323
H       -1.2301597375    1.6959474265   -1.2618966334
C       -0.1285393278   -0.6042207021    1.1698116156
H        0.1901489417   -0.5168950741    2.2113257062
13   
From optimize.out: Frame 7 / 27, Energy=    -286.7914497900
C        1.4016876849    0.3539810262   -0.1835172815
C        0.5996263908   -0.9464749110   -0.0926261920
C       -0.6955738625   -0.4405340240   -1.1583969345
C       -1.0888783803    0.1956305622    0.5478003208
C       -0.5776614597    1.0213726924   -0.8028282721
N        0.8901161513    1.4597812634   -0.5307337879
H        2.3667835577    0.3977344325    0.3508060276
H        1.3230143263   -1.7556173389   -0.2323977501
H       -1.0866807887   -1.4357841006   -1.0560616401
H       -1.9998564829    0.5139188494    1.0486449310
H       -1.2561356967    1.7190905236   -1.3070470676
C       -0.1026747795   -0.6091601975    1.1884221160
H        0.2262333394   -0.4739387777    2.2279355305
13   
From optimize.out: Frame 3 / 27, Energy=    -286.7237097020
C        1.3548922482    0.3497587280   -0.1831293916
C        0.5769812703   -0.9725826838   -0.0901274943
C       -0.7113937667   -0.4288020829   -1.2105354897
C       -1.0707341207    0.1739980950    0.5621889072
C       -0.5872643109    1.0506536991   -0.8533160883
N        0.9341239741    1.4864996617   -0.5275941074
H        2.3056777758    0.3731479169    0.3934564456
H        1.3240807144   -1.7651068498   -0.2128424938
H       -1.0738646850   -1.4267032590   -1.0980452930
H       -1.9608700172    0.4779422334    1.1061970417
H       -1.2801483758    1.7478342720   -1.3621759014
C       -0.0726690320   -0.6192349306    1.2156973544
H        0.2611883256   -0.4474048000    2.2602265105
13   
C6H6N->C6H6N atoms 1-13 frame 213 charge +0.000 sz -1.000 sz^2 0.724
C        1.3016848329    0.3475029845   -0.1880101811
C        0.5576213668   -0.9915339354   -0.0777620164
C       -0.7034398698   -0.4273991232   -1.2314184651
C       -1.0401869615    0.1631112352    0.5790927254
C       -0.5891439106    1.0743206093   -0.8906979902
N        0.9488994882    1.5122200341   -0.5126405847
H        2.2666301331    0.3835737836    0.3701120689
H        1.3171583667   -1.7586672667   -0.2152377430
H       -1.0522999655   -1.4221079932   -1.0954510220
H       -1.9237373804    0.4755757897    1.1335196468
H       -1.2684238947    1.7654921695   -1.4243819316
C       -0.0668478211   -0.6638497148    1.2366862764
H        0.2520856160   -0.4582385725    2.3161892166
13   
C6H6N->C6H6N atoms 1-13 frame 215 charge -0.000 sz -1.000 sz^2 0.697
C        1.2985761537    0.3456173313   -0.1886890915
C        0.5689819722   -0.9824317485   -0.0583139324
C       -0.6764762218   -0.4345918232   -1.1936466514
C       -1.0264039060    0.1729722416    0.5984873429
C       -0.5899007200    1.0726912320   -0.8878329803
N        0.9247231634    1.5182581511   -0.4932803808
H        2.3056723750    0.4205920098    0.2762992769
H        1.3217712903   -1.7269901208   -0.2486162743
H       -1.0518945490   -1.4293372020   -1.0473765327
H       -1.9312851634    0.5175349814    1.1099795520
H       -1.2241404525    1.7478540989   -1.4502703411
C       -0.1007421321   -0.7173508616    1.2352667024
H        0.1811181902   -0.5048182899    2.3479933104
13   
C6H6N->C6H6N atoms 1-13 frame 217 charge +0.000 sz -1.000 sz^2 0.670
C        1.3266448851    0.3495463126   -0.1847141169
C        0.5923353173   -0.9611700514   -0.0432895626
C       -0.6506504093   -0.4446775401   -1.1463478150
C       -1.0282882421    0.1879927079    0.6132568973
C       -0.5903213955    1.0575778980   -0.8686381907
N        0.8950166334    1.5125166353   -0.4820622113
H        2.3621045138    0.4483999485    0.2009474664
H        1.3326688179   -1.7048284112   -0.2741377916
H       -1.0739903133   -1.4342009813   -1.0088117968
H       -1.9529438304    0.5576379751    1.0752692250
H       -1.1940859463    1.7229368329   -1.4503247786
C       -0.1351129467   -0.7443649510    1.2278734238
H        0.1166229161   -0.5473663752    2.3409792509
13   
From optimize.out: Frame 3 / 26, Energy=    -286.7396552024
C        1.3946819090    0.3609353435   -0.1824663678
C        0.6193375723   -0.9310131830   -0.0537370025
C       -0.6387415695   -0.4568162987   -1.1082508732
C       -1.0591421693    0.2083902018    0.6022967683
C       -0.5858371712    1.0192754963   -0.8168815195
N        0.8632926331    1.4780155306   -0.4910329411
H        2.4281250483    0.4534547621    0.1924688062
H        1.3408421453   -1.7061296375   -0.2807295795
H       -1.1027146905   -1.4279204123   -0.9834787352
H       -1.9928808022    0.5812361427    1.0315176023
H       -1.2002812996    1.6914976520   -1.3917602802
C       -0.1615220085   -0.7113495615    1.1993500267
H        0.0948404028   -0.5595760360    2.2827040956
13   
From optimize.out: Frame 7 / 26, Energy=    -286.8024337556
C        1.4451818602    0.3789547547   -0.1854234009
C        0.6426602344   -0.9021106911   -0.0608348190
C       -0.6022445617   -0.4808593092   -1.0714689566
C       -1.0785647704    0.2372892064    0.5834242259
C       -0.5732622894    0.9804754464   -0.7590333667
N        0.8246935816    1.4488634176   -0.5034691847
H        2.4763329867    0.4769866568    0.1714954192
H        1.3257635549   -1.7221886143   -0.2731547502
H       -1.1321725340   -1.4193951126   -0.9717493374
H       -2.0237662226    0.6115801949    0.9769424390
H       -1.2006449750    1.6565926147   -1.3242356894
C       -0.1832351058   -0.6784296583    1.1755957357
H        0.0792582410   -0.5877589061    2.2419116850
13   
From optimize.out: Frame 9 / 26, Energy=    -286.8166642223
C        1.4867617280    0.4015838443   -0.1961900255
C        0.6703290854   -0.8743466490   -0.0564031640
C       -0.5446958778   -0.5102924017   -1.0421551077
C       -1.0920466015    0.2672543812    0.5750513651
C       -0.5661389787    0.9505089952   -0.7131282154
N        0.8048054942    1.4335688799   -0.5255544098
H        2.5215656825    0.5069344951    0.1325124326
H        1.2956974650   -1.7501571952   -0.2348034373
H       -1.1721001838   -1.3906426216   -0.9999097049
H       -2.0524378867    0.6282199750    0.9398229371
H       -1.2117752743    1.6187994624   -1.2736106553
C       -0.1976450007   -0.6463631307    1.1664800363
H        0.0576803485   -0.6350680349    2.2278879485
13   
From optimize.out: Frame 11 / 26, Energy=    -286.8290227617
C        1.5123090344    0.4207719057   -0.2102156218
C        0.6948125141   -0.8538640541   -0.0436162010
C       -0.4796863068   -0.5360389896   -1.0295336354
C       -1.0973918221    0.2965912932    0.5916948131
C       -0.5668040563    0.9239668032   -0.6901493529
N        0.7967457064    1.4274676557   -0.5527928208
H        2.5539659162    0.5329293254    0.0857787063
H        1.2654631982   -1.7756962745   -0.1725434309
H       -1.1991722191   -1.3440884269   -1.0737801222
H       -2.0659325565    0.6411759967    0.9495771157
H       -1.2314508073    1.5765080380   -1.2509508649
C       -0.2086138822   -0.6171184965    1.1692250702
H        0.0257552810   -0.6926047764    2.2273063446
13   
From optimize.out: Frame 14 / 26, Energy=    -286.8438052471
C        1.5264831848    0.4350165097   -0.2225256473
C        0.7103370339   -0.8394212903   -0.0344420616
C       -0.4201797334   -0.5598854106   -1.0398506023
C       -1.0991033550    0.3310963455    0.6241901866
C       -0.5726664446    0.8935258328   -0.6762817967
N        0.7884760159    1.4208209836   -0.5771220010
H        2.5734781796    0.5536844114    0.0461032591
H        1.2383528234   -1.7920846433   -0.1112383304
H       -1.1921110336   -1.3105643251   -1.1626641854
H       -2.0620315675    0.6723911700    0.9988226685
H       -1.2545872463    1.5323926686   -1.2348610931
C       -0.2236166844   -0.5871130282    1.1701951159
H       -0.0128311730   -0.7498592240    2.2196744876
13   
From optimize.out: Frame 16 / 26, Energy=    -286.8491448485
C        1.5328414918    0.4464243785   -0.2302201411
C        0.7199287742   -0.8297782585   -0.0269707038
C       -0.3693580363   -0.5817881572   -1.0621839093
C       -1.0996583616    0.3673403552    0.6628731392
C       -0.5815642194    0.8615847507   -0.6683058367
N        0.7799195455    1.4146612789   -0.5974596610
H        2.5838601092    0.5706874488    0.0159801574
H        1.2166298981   -1.8017791256   -0.0540396346
H       -1.1702773991   -1.2870657416   -1.2544570384
H       -2.0476225205    0.7139436741    1.0668075694
H       -1.2769098183    1.4890463373   -1.2257528931
C       -0.2391337761   -0.5574682938    1.1698678673
H       -0.0486556874   -0.8058086468    2.2038610846
13   
From optimize.out: Frame 18 / 26, Energy=    -286.8509481251
C        1.5293349211    0.4558787469   -0.2341902472
C        0.7241113597   -0.8261455622   -0.0158320467
C       -0.3328656134   -0.5988623551   -1.0835123794
C       -1.0944558072    0.4041526804    0.7011457312
C       -0.5943345984    0.8345682696   -0.6683602311
N        0.7706334043    1.4138151609   -0.6128433451
H        2.5860375219    0.5822459123   -0.0148240776
H        1.2111913083   -1.8028885711    0.0036895485
H       -1.1439126508   -1.2713644367   -1.3446584441
H       -2.0195865905    0.7630201750    1.1413401160
H       -1.2975204412    1.4504030133   -1.2304548907
C       -0.2483845398   -0.5341021771    1.1723939319
H       -0.0902482741   -0.8707208562    2.1861063341
13   
From optimize.out: Frame 23 / 26, Energy=    -286.8516203310
C        1.5172730510    0.4629050418   -0.2378046180
C        0.7207214324   -0.8267862034   -0.0027755196
C       -0.3118664516   -0.6092493468   -1.0994105055
C       -1.0818040514    0.4381346295    0.7331096791
C       -0.6115207443    0.8177507511   -0.6705527469
N        0.7611129279    1.4187058009   -0.6231308480
H        2.5815417781    0.5860214464   -0.0521195462
H        1.2231972662   -1.7931763437    0.0547091265
H       -1.1063633421   -1.2767026061   -1.4204299715
H       -1.9737919406    0.8204107600    1.2162860132
H       -1.3157894517    1.4234547918   -1.2418183585
C       -0.2503053289   -0.5200884470    1.1767284325
H       -0.1524051450   -0.9413802746    2.1672088630
13   
From optimize.out: Frame 25 / 26, Energy=    -286.8516452122
C        1.5009683219    0.4672497908   -0.2393719315
C        0.7094436613   -0.8299612976    0.0071133133
C       -0.3050558434   -0.6127962709   -1.1116536696
C       -1.0687791198    0.4597692597    0.7542358537
C       -0.6324234831    0.8102595718   -0.6732306071
N        0.7511560871    1.4252465534   -0.6274867723
H        2.5714799526    0.5854806682   -0.0828026601
H        1.2470759162   -1.7752703645    0.0775526998
H       -1.0555959059   -1.3138504156   -1.4654576916
H       -1.9068079387    0.8911931913    1.2876960455
H       -1.3302306300    1.4129530477   -1.2533288021
C       -0.2515422692   -0.5184791969    1.1787972957
H       -0.2296887490   -1.0017945373    2.1479369263
13   
From optimize.out: Frame 1 / 2, Energy=    -286.8516486485
C        1.4905838781    0.4711775155   -0.2292302004
C        0.7027017720   -0.8341092217    0.0002850662
C       -0.3007350927   -0.6077747574   -1.1338531143
C       -1.0746136457    0.4509684029    0.7482589630
C       -0.6415991178    0.8072959350   -0.6825858995
N        0.7443936819    1.4315185571   -0.6151779547
H        2.5600656925    0.5909836336   -0.0641922198
H        1.2696991906   -1.7635565714    0.0537405531
H       -1.0517684345   -1.3480311925   -1.4047025931
H       -1.8666043165    0.9453307314    1.3000824204
H       -1.3276382186    1.4161472669   -1.2694561774
C       -0.2641273627   -0.5357495884    1.1643775688
H       -0.2403580266   -1.0242007111    2.1324535877
