13   
Frame   0 IRC: Energy =  -286.8625600051 ; +0.0000 kcal/mol
C        0.9365494245   -0.2311277403   -0.9044965831
C        0.0542700820   -1.3163137069   -0.4253016821
C       -0.9515907892   -1.0698325442    0.4432840154
C       -1.3039882852    0.2907872402    0.8245254913
C       -0.5796326734    1.3444127978    0.3966910979
N        0.6146272261    1.1867516971   -0.3515393777
H        1.2088205827   -0.2431515139   -1.9618392629
H        0.2159822355   -2.3133905239   -0.8276795338
H       -1.5835193305   -1.8836996244    0.7866853253
H       -2.2242438137    0.4651422157    1.3740852909
H       -0.9016721370    2.3736583331    0.5228090867
C        1.7508553954    0.5019596276    0.0714933553
H        2.7635420824    0.8948037426    0.0512827767
13   
Frame   1 IRC: Energy =  -286.8622665292 ; +0.1842 kcal/mol
C        0.9427601792   -0.2382592072   -0.8888488453
C        0.0604746574   -1.3281345276   -0.4054595749
C       -0.9789534950   -1.0731693920    0.4171119246
C       -1.3179011194    0.2895933722    0.8115930127
C       -0.5749876377    1.3366576284    0.4040177278
N        0.6019317243    1.1752980436   -0.3731413052
H        1.2132098614   -0.2736997714   -1.9465582824
H        0.2422306075   -2.3307996875   -0.7847494142
H       -1.6351957279   -1.8805000824    0.7298502453
H       -2.2227428363    0.4690269987    1.3840953023
H       -0.8550414025    2.3693926458    0.5876957520
C        1.7622979674    0.5306085448    0.0566526793
H        2.7619172216    0.9539854345    0.0077407780
13   
Frame   2 IRC: Energy =  -286.8610559159 ; +0.9438 kcal/mol
C        0.9526057200   -0.2516145521   -0.8734691975
C        0.0612970824   -1.3409626947   -0.3921441717
C       -1.0048665541   -1.0760259679    0.3896123164
C       -1.3198023449    0.2877021828    0.8083373398
C       -0.5718619053    1.3285668847    0.3984319007
N        0.5781500588    1.1692631959   -0.4223709475
H        1.2452909060   -0.3236664809   -1.9231938674
H        0.2495788252   -2.3463479064   -0.7606835996
H       -1.6901326988   -1.8730595370    0.6648318546
H       -2.1899622030    0.4697344738    1.4309815525
H       -0.8041355037    2.3607663986    0.6410652792
C        1.7546926613    0.5702575780    0.0430602009
H        2.7391459561    1.0253864254   -0.0044586605
13   
Frame   3 IRC: Energy =  -286.8589061049 ; +2.2929 kcal/mol
C        0.9593459203   -0.2633194823   -0.8615746332
C        0.0601329460   -1.3537175437   -0.3811841901
C       -1.0283717225   -1.0782781720    0.3626907288
C       -1.3192472759    0.2863427173    0.8042859899
C       -0.5665453469    1.3196400212    0.3892315944
N        0.5522682149    1.1610380148   -0.4777761385
H        1.2707841986   -0.3693817189   -1.9032427866
H        0.2547790652   -2.3622986284   -0.7374253692
H       -1.7377640755   -1.8646618008    0.6065598651
H       -2.1509736001    0.4687688564    1.4764866098
H       -0.7398553638    2.3475020258    0.6899253669
C        1.7387416740    0.6088737352    0.0269139253
H        2.7067053658    1.0994919754    0.0051090374
13   
Frame   4 IRC: Energy =  -286.8557831228 ; +4.2526 kcal/mol
C        0.9666625762   -0.2757395436   -0.8545937473
C        0.0615340555   -1.3683231041   -0.3683737727
C       -1.0456524192   -1.0796152629    0.3401569548
C       -1.3131612992    0.2844727757    0.8012577803
C       -0.5541560290    1.3086741783    0.3831525014
N        0.5296370385    1.1484145289   -0.5297727741
H        1.2775119198   -0.4109527092   -1.8937754102
H        0.2500718124   -2.3818449390   -0.7144846206
H       -1.7817418161   -1.8504792998    0.5529386137
H       -2.1147326893    0.4661658328    1.5086768314
H       -0.6716446668    2.3282869821    0.7342368268
C        1.7269756067    0.6457495716    0.0030289311
H        2.6686959103    1.1851909892    0.0375518854
13   
Frame   5 IRC: Energy =  -286.8510505253 ; +7.2223 kcal/mol
C        0.9801358462   -0.2878314783   -0.8529788694
C        0.0615678806   -1.3880063923   -0.3551666192
C       -1.0591119711   -1.0827689154    0.3223464918
C       -1.3009118050    0.2757039342    0.7991952386
C       -0.5288058269    1.2953800795    0.3861178326
N        0.5173513633    1.1381437945   -0.5709424207
H        1.2762825600   -0.4363037110   -1.8947874313
H        0.2182519380   -2.4128884744   -0.6883034707
H       -1.8306550529   -1.8259615051    0.5179957416
H       -2.0875922850    0.4603328809    1.5178735763
H       -0.6326083036    2.2991120665    0.7765358845
C        1.7407065248    0.6907683142   -0.0501123874
H        2.6453891315    1.2743194066    0.0922264332
13   
Frame   6 IRC: Energy =  -286.8427958955 ; +12.4022 kcal/mol
C        0.9975798032   -0.2915689167   -0.8488243077
C        0.0523508178   -1.4170026473   -0.3509663087
C       -1.0790143705   -1.0963767592    0.3099355210
C       -1.2862139924    0.2635579493    0.7901818156
C       -0.5066393308    1.2796835609    0.3946020739
N        0.5180220755    1.1397572547   -0.5889342693
H        1.2918915190   -0.4297975796   -1.8929836385
H        0.1657393927   -2.4619284222   -0.6612948517
H       -1.8876442557   -1.8053831157    0.5133609013
H       -2.0665987167    0.4537436854    1.5134649606
H       -0.6286604614    2.2725803755    0.8102322029
C        1.7789104284    0.7478826951   -0.1298761310
H        2.6502770909    1.3448519197    0.1411020316
13   
Frame   7 IRC: Energy =  -286.8295290176 ; +20.7273 kcal/mol
C        1.0257168118   -0.2711165202   -0.8526567587
C        0.0307336745   -1.4630438219   -0.3477305899
C       -1.1039418729   -1.1199130664    0.3054787982
C       -1.2750474259    0.2486616128    0.7810680119
C       -0.4931019986    1.2711333864    0.4002260393
N        0.5280067235    1.1623381370   -0.5929433607
H        1.3178214934   -0.4156933824   -1.9018340524
H        0.1108580999   -2.5318016794   -0.6419151872
H       -1.9489130208   -1.7952037258    0.5230400909
H       -2.0492278939    0.4485895124    1.5084229089
H       -0.6337035603    2.2539840516    0.8354135847
C        1.8177845137    0.8142467629   -0.1875940271
H        2.6730144556    1.3978187328    0.1710245421
13   
Frame   8 IRC: Energy =  -286.8096148183 ; +33.2236 kcal/mol
C        1.0753544289   -0.2141976328   -0.8702201015
C       -0.0075943217   -1.5283883531   -0.3363772808
C       -1.1319354856   -1.1433803633    0.3084460221
C       -1.2664485913    0.2359217717    0.7755535423
C       -0.4864254401    1.2665785288    0.4044004958
N        0.5393850652    1.1991128286   -0.5912384724
H        1.3409498383   -0.4128328475   -1.9180648210
H        0.0663657345   -2.6069145819   -0.6338131991
H       -1.9999678388   -1.7912706078    0.5341577339
H       -2.0374440885    0.4442300118    1.5058879550
H       -0.6383772871    2.2423567638    0.8523729925
C        1.8478109560    0.8763875807   -0.2185503270
H        2.6983270302    1.4323969010    0.1874454601
13   
Frame   9 IRC: Energy =  -286.7857505153 ; +48.1987 kcal/mol
C        1.1396677831   -0.1338153616   -0.8980230887
C       -0.0558316535   -1.6028025387   -0.3215963306
C       -1.1572584652   -1.1625504698    0.3134228917
C       -1.2585485767    0.2254079675    0.7725584219
C       -0.4825576263    1.2628670426    0.4088100161
N        0.5474085380    1.2400900211   -0.5880626386
H        1.3563211256   -0.4237349586   -1.9273388363
H        0.0321637261   -2.6738018232   -0.6319592292
H       -2.0386210574   -1.7884115699    0.5425157518
H       -2.0298357893    0.4403848252    1.5049712693
H       -0.6416616265    2.2339282799    0.8642723196
C        1.8700036355    0.9277201478   -0.2365856119
H        2.7187499865    1.4547184377    0.1970150648
13   
Frame  10 IRC: Energy =  -286.7629689922 ; +62.4944 kcal/mol
C        1.2122387108   -0.0403521852   -0.9330597756
C       -0.1091404992   -1.6784965020   -0.3066648627
C       -1.1778615495   -1.1785765753    0.3175626106
C       -1.2531498331    0.2190554559    0.7739162466
C       -0.4775077860    1.2565645712    0.4124211841
N        0.5493393307    1.2846867094   -0.5864168260
H        1.3634195018   -0.4464967487   -1.9239513833
H        0.0064300593   -2.7314750456   -0.6345682769
H       -2.0661763782   -1.7847363059    0.5479728871
H       -2.0244608171    0.4365343349    1.5038831069
H       -0.6437078635    2.2272340105    0.8734016505
C        1.8857275978    0.9664961578   -0.2474144219
H        2.7348495261    1.4695621230    0.2029178607
13   
Frame  11 IRC: Energy =  -286.7488341108 ; +71.3641 kcal/mol
C        1.2847241990    0.0600046937   -0.9744952856
C       -0.1627611604   -1.7524503659   -0.2964330565
C       -1.1923608064   -1.1843634401    0.3214407259
C       -1.2480211314    0.2111435930    0.7743021868
C       -0.4700668471    1.2499744621    0.4162393146
N        0.5373457872    1.3284163335   -0.5912420441
H        1.3611592007   -0.4781489350   -1.9012009119
H       -0.0145957619   -2.7777791213   -0.6406747567
H       -2.0846174923   -1.7810099803    0.5521087498
H       -2.0221774406    0.4333982103    1.5038089733
H       -0.6429202244    2.2177961767    0.8795878731
C        1.9051348875    0.9901501744   -0.2530432351
H        2.7491567900    1.4828681988    0.2096014666
13   
Frame  12 IRC: Energy =  -286.7450926678 ; +73.7119 kcal/mol
C        1.3413856394    0.1531036577   -1.0159471562
C       -0.2136219607   -1.8179849599   -0.2954185614
C       -1.2046490372   -1.1943307565    0.3205020596
C       -1.2405254659    0.2027622080    0.7716126564
C       -0.4583119374    1.2414548475    0.4154773107
N        0.5292233353    1.3616497308   -0.5997798417
H        1.3586577592   -0.5093625100   -1.8587910817
H       -0.0510469050   -2.8301155723   -0.6483635140
H       -2.1045766386   -1.7766387022    0.5607155940
H       -2.0148839694    0.4279214389    1.5011353823
H       -0.6397254635    2.2048075975    0.8885788988
C        1.9323275622    1.0257813480   -0.2605196990
H        2.7657470815    1.5109516723    0.2207979523
13   
Frame  13 IRC: Energy =  -286.7448724028 ; +73.8501 kcal/mol (Transition State)
C        1.3849411919    0.2148994204   -1.0338857887
C       -0.2631242729   -1.8719916310   -0.3133503728
C       -1.2182767524   -1.2073240046    0.3144682208
C       -1.2291160224    0.1906183480    0.7639615595
C       -0.4441909768    1.2315902376    0.4133591201
N        0.5282159269    1.3816717472   -0.6097298667
H        1.3729999898   -0.5367830716   -1.7992473379
H       -0.1166697481   -2.8859894284   -0.6623876965
H       -2.1241603232   -1.7714939012    0.5756543373
H       -1.9991883528    0.4197551444    1.4971261017
H       -0.6299383968    2.1882390772    0.9000176253
C        1.9598785485    1.0783394342   -0.2717993145
H        2.7786291884    1.5684686279    0.2258134124
13   
Frame  14 IRC: Energy =  -286.7451265650 ; +73.6907 kcal/mol
C        1.4221482609    0.2399631985   -1.0230728793
C       -0.3116309279   -1.9047284996   -0.3495583302
C       -1.2310825130   -1.2168953393    0.3066059517
C       -1.2193265372    0.1801097175    0.7581155185
C       -0.4313210204    1.2212977919    0.4110710753
N        0.5289074242    1.3814739297   -0.6192906915
H        1.4097780948   -0.5667385363   -1.7301492789
H       -0.1936127225   -2.9244044912   -0.6922858215
H       -2.1353154043   -1.7696343326    0.5974087236
H       -1.9825168712    0.4119825497    1.4975724132
H       -0.6147134039    2.1731799402    0.9083942283
C        1.9777117432    1.1291181979   -0.2801772014
H        2.7809738775    1.6452758735    0.2153662922
13   
Frame  15 IRC: Energy =  -286.7455316878 ; +73.4364 kcal/mol
C        1.4582235525    0.2442984479   -0.9961268152
C       -0.3603189669   -1.9188665572   -0.3931673751
C       -1.2442405215   -1.2236685646    0.3022549637
C       -1.2126953824    0.1707211700    0.7576789223
C       -0.4217928222    1.2099392623    0.4079236224
N        0.5307530599    1.3670390125   -0.6283437815
H        1.4614821472   -0.5996760063   -1.6570470971
H       -0.2672719813   -2.9398370882   -0.7392099512
H       -2.1402417161   -1.7723302149    0.6248323113
H       -1.9675756825    0.4062798460    1.5048124455
H       -0.6007250166    2.1612769719    0.9078314801
C        1.9887814935    1.1708434533   -0.2855059067
H        2.7756218364    1.7239802672    0.1940671814
13   
Frame  16 IRC: Energy =  -286.7459557041 ; +73.1704 kcal/mol
C        1.4953172153    0.2413466649   -0.9621209594
C       -0.4083229843   -1.9295872578   -0.4293822736
C       -1.2601906447   -1.2318816195    0.3011556930
C       -1.2051426319    0.1598378162    0.7629005794
C       -0.4139066988    1.1959130751    0.4041451657
N        0.5356350712    1.3489381522   -0.6354957155
H        1.5237732411   -0.6271240233   -1.5884737800
H       -0.3408887476   -2.9477956685   -0.7883463467
H       -2.1527060714   -1.7735187867    0.6439615558
H       -1.9490964912    0.3998082453    1.5191182792
H       -0.5914952261    2.1498750532    0.8994475011
C        1.9985635442    1.2096305974   -0.2907265286
H        2.7684604242    1.8045577515    0.1638168298
13   
Frame  17 IRC: Energy =  -286.7463797205 ; +72.9043 kcal/mol
C        1.5324108781    0.2383948819   -0.9281151037
C       -0.4563270016   -1.9403079583   -0.4655971722
C       -1.2761407679   -1.2400946745    0.3000564222
C       -1.1975898814    0.1489544623    0.7681222365
C       -0.4060205754    1.1818868879    0.4003667089
N        0.5405170824    1.3308372920   -0.6426476495
H        1.5860643349   -0.6545720403   -1.5199004629
H       -0.4145055140   -2.9557542488   -0.8374827422
H       -2.1651704266   -1.7747073586    0.6630908002
H       -1.9306172998    0.3933366446    1.5334241128
H       -0.5822654357    2.1384731344    0.8910635222
C        2.0083455949    1.2484177415   -0.2959471505
H        2.7612990120    1.8851352358    0.1335664783
13   
Frame  18 IRC: Energy =  -286.7467263580 ; +72.6868 kcal/mol
C        1.5685693758    0.2361064927   -0.8905083947
C       -0.5040340581   -1.9463602291   -0.5018420294
C       -1.2894321336   -1.2473608981    0.2981928460
C       -1.1894979878    0.1381709527    0.7723306916
C       -0.3979726805    1.1681077201    0.3959890438
N        0.5463824395    1.3094763922   -0.6495188043
H        1.6486934380   -0.6783154793   -1.4423690720
H       -0.4876167643   -2.9575682897   -0.8857735509
H       -2.1719276229   -1.7775018351    0.6821089060
H       -1.9122716210    0.3863023323    1.5456956333
H       -0.5733427280    2.1277706184    0.8809833163
C        2.0146210359    1.2831394312   -0.3030664211
H        2.7478293069    1.9580327917    0.0977778354
13   
Frame  19 IRC: Energy =  -286.7470568654 ; +72.4794 kcal/mol
C        1.6045329323    0.2339563921   -0.8521510646
C       -0.5516792113   -1.9514393355   -0.5380931318
C       -1.3021692642   -1.2544297486    0.2961699455
C       -1.1812937063    0.1274082562    0.7763279382
C       -0.3898910632    1.1543800450    0.3914864698
N        0.5524527815    1.2874359162   -0.6563314288
H        1.7113930013   -0.7012866751   -1.3629703127
H       -0.5606226366   -2.9581014617   -0.9338880915
H       -2.1774951251   -1.7806310728    0.7011038443
H       -1.8939537737    0.3791507192    1.5575430881
H       -0.5644840336    2.1172138975    0.8705495209
C        2.0201655015    1.3170136507   -0.3105814773
H        2.7330445973    2.0293294168    0.0608346999
13   
Frame  20 IRC: Energy =  -286.7473873728 ; +72.2720 kcal/mol
C        1.6404964888    0.2318062916   -0.8137937346
C       -0.5993243644   -1.9565184418   -0.5743442341
C       -1.3149063948   -1.2614985991    0.2941470449
C       -1.1730894249    0.1166455597    0.7803251849
C       -0.3818094460    1.1406523700    0.3869838959
N        0.5585231234    1.2653954401   -0.6631440532
H        1.7740925647   -0.7242578709   -1.2835715535
H       -0.6336285089   -2.9586346337   -0.9820026320
H       -2.1830626272   -1.7837603106    0.7200987825
H       -1.8756359263    0.3719991061    1.5693905429
H       -0.5556253393    2.1066571765    0.8601157255
C        2.0257099670    1.3508878702   -0.3180965335
H        2.7182598878    2.1006260419    0.0238915643
13   
Frame  21 IRC: Energy =  -286.7476451298 ; +72.1102 kcal/mol
C        1.6700130775    0.2246804586   -0.7651700903
C       -0.6376327405   -1.9486011541   -0.6104288729
C       -1.3232387576   -1.2647919150    0.2894398646
C       -1.1678301363    0.1086687765    0.7834735320
C       -0.3757914522    1.1294173974    0.3836975418
N        0.5644155887    1.2372084016   -0.6673442465
H        1.8270112403   -0.7498292312   -1.1820931494
H       -0.6926984886   -2.9434080869   -1.0323813822
H       -2.1804529675   -1.7900598044    0.7329887862
H       -1.8633082954    0.3655943727    1.5778137036
H       -0.5477175693    2.0994645671    0.8493080220
C        2.0272660763    1.3747108876   -0.3301095046
H        2.6999644245    2.1569453303   -0.0291942041
13   
Frame  22 IRC: Energy =  -286.7478938231 ; +71.9542 kcal/mol
C        1.6987264545    0.2169347113   -0.7152673914
C       -0.6747778706   -1.9390646776   -0.6464927724
C       -1.3310223414   -1.2676148464    0.2843982565
C       -1.1629377572    0.1010390833    0.7865161167
C       -0.3700305602    1.1184929844    0.3805627136
N        0.5702858928    1.2082555780   -0.6712189635
H        1.8787113393   -0.7757245396   -1.0778638969
H       -0.7500322298   -2.9262180758   -1.0830422246
H       -2.1768245354   -1.7967542727    0.7451181910
H       -1.8517269708    0.3592826913    1.5858102400
H       -0.5399282726    2.0926910841    0.8384537342
C        2.0283252862    1.3972816505   -0.3426828599
H        2.6812315652    2.2113986293   -0.0842911434
13   
Frame  23 IRC: Energy =  -286.7482159471 ; +71.7520 kcal/mol
C        1.7262033764    0.2075025141   -0.6653696800
C       -0.7092488906   -1.9264520823   -0.6822490513
C       -1.3380650204   -1.2692357436    0.2793014647
C       -1.1593039749    0.0946023028    0.7897627290
C       -0.3647633396    1.1082879621    0.3780326290
N        0.5750439568    1.1769049594   -0.6749965277
H        1.9292419876   -0.8024861129   -0.9733613952
H       -0.8030268327   -2.9055822502   -1.1342062858
H       -2.1710044938   -1.8042797887    0.7571079182
H       -1.8421229094    0.3539979016    1.5934415869
H       -0.5311785546    2.0868462616    0.8282804007
C        2.0277249604    1.4172379683   -0.3555995095
H        2.6604997349    2.2626561077   -0.1401442790
13   
Frame  24 IRC: Energy =  -286.7490840310 ; +71.2073 kcal/mol
C        1.7444872246    0.1855315193   -0.6155090513
C       -0.7238378355   -1.8909684665   -0.7157181644
C       -1.3395990551   -1.2619194870    0.2737943813
C       -1.1650278909    0.0970348578    0.7945262908
C       -0.3631665784    1.1034316273    0.3799988285
N        0.5715324878    1.1277266766   -0.6780517590
H        1.9710777412   -0.8356883873   -0.8668272797
H       -0.8237598351   -2.8593267091   -1.1891117907
H       -2.1488897817   -1.8179841652    0.7680591385
H       -1.8472198495    0.3563480775    1.5983577414
H       -0.5152880808    2.0879060528    0.8231699797
C        2.0147859463    1.4177558225   -0.3710685613
H        2.6249055070    2.2901525813   -0.2016197537
13   
Frame  25 IRC: Energy =  -286.7498277225 ; +70.7406 kcal/mol
C        1.7351171240    0.1521139826   -0.5759371372
C       -0.7006804111   -1.8382448525   -0.7358926039
C       -1.3328242625   -1.2438797110    0.2656224903
C       -1.1856078354    0.1120074517    0.7959872551
C       -0.3686294774    1.1085908603    0.3879741847
N        0.5562905576    1.0842603305   -0.6758054024
H        1.9619279248   -0.8787105485   -0.7790566931
H       -0.7785268003   -2.7977638113   -1.2302569731
H       -2.1154357196   -1.8317896740    0.7635076549
H       -1.8757472571    0.3669190401    1.5947782032
H       -0.4926033685    2.0960707859    0.8318250046
C        1.9955706127    1.3946524825   -0.3860632479
H        2.6011489128    2.2757736638   -0.2566827351
13   
Frame  26 IRC: Energy =  -286.7505594972 ; +70.2814 kcal/mol
C        1.7230977765    0.1175998678   -0.5373508814
C       -0.6739068865   -1.7838696475   -0.7547934143
C       -1.3252534846   -1.2248126224    0.2571953109
C       -1.2076109868    0.1281813807    0.7971318308
C       -0.3747686914    1.1147095841    0.3965252178
N        0.5399248499    1.0413411875   -0.6730511540
H        1.9478936934   -0.9226734544   -0.6930836515
H       -0.7269742225   -2.7347344695   -1.2700839174
H       -2.0808953484   -1.8456048713    0.7574710130
H       -1.9065193023    0.3782775536    1.5903847781
H       -0.4692677686    2.1049161720    0.8417987585
C        1.9757540080    1.3692862333   -0.4010124904
H        2.5785263634    2.2573830860   -0.3111314001
13   
Frame  27 IRC: Energy =  -286.7507412322 ; +70.1674 kcal/mol
C        1.7566662025    0.1198132513   -0.4989489625
C       -0.7143515268   -1.7682415443   -0.7857868395
C       -1.3327419679   -1.2261662773    0.2567544025
C       -1.2153650725    0.1268445027    0.7955545232
C       -0.3690055899    1.1019583067    0.3924335678
N        0.5423119127    0.9970622278   -0.6769633513
H        2.0064397935   -0.9210575851   -0.5983553709
H       -0.7734436674   -2.7150929197   -1.3079580921
H       -2.0562041780   -1.8631513858    0.7826018452
H       -1.9121529903    0.3815083726    1.5893100996
H       -0.4418019673    2.0942509153    0.8368961113
C        1.9661065286    1.3826812736   -0.4192715694
H        2.5435425227    2.2895908623   -0.3662663640
13   
Frame  28 IRC: Energy =  -286.7509003232 ; +70.0676 kcal/mol
C        1.7586962830    0.1245848535   -0.5129239105
C       -0.7170330843   -1.7673416386   -0.7884281540
C       -1.3380479511   -1.2246155184    0.2518547221
C       -1.2176795828    0.1283741198    0.7919235104
C       -0.3658656956    1.0986763871    0.3911426563
N        0.5341954163    0.9973424915   -0.6911639165
H        1.9955334523   -0.9228140475   -0.5669767957
H       -0.7553349461   -2.7217179804   -1.2981827401
H       -2.0636447873   -1.8609441089    0.7764109448
H       -1.9089929749    0.3822470876    1.5905757302
H       -0.4227819120    2.0856950885    0.8501801565
C        1.9595214288    1.3886705773   -0.4337777935
H        2.5414343537    2.2918426884   -0.3606344099
