13   
From qcopt_rct.out: Frame 3 / 3, Energy=    -286.9243424354
C        1.3395490851    0.8947094440   -0.5127749546
C        0.2989461656   -1.4056986771   -0.2409666029
C       -0.9091642169   -1.0963424901    0.3089704339
C       -1.4029826532    0.2191536682    0.6281938981
C       -0.7719831603    1.4352510770    0.4488347516
N        0.4361745857    1.7894371059   -0.0498861750
H        2.2497103551    1.3812114973   -0.8706793694
H        0.5113953700   -2.4583136581   -0.4171916891
H       -1.5802336948   -1.9224424741    0.5354467353
H       -2.3972359443    0.2656751257    1.0659647182
H       -1.3513944638    2.3038717213    0.7694081809
C        1.3387056676   -0.4837671890   -0.6205212429
H        2.2385129037   -0.9227451512   -1.0447986839
13   
From qcopt_prd.out: Frame 3 / 3, Energy=    -286.7239573876
C        1.5353904196    0.3203725279   -0.9060308710
C       -0.0504633254   -2.0308683785    0.2795732484
C       -1.1766597543   -1.3346506213    0.3477964270
C       -1.3597481800    0.1074805293    0.4994871130
C       -0.4058463085    1.0622945877    0.4895092982
N        0.9861760057    0.8392877502    0.4076947497
H        1.6077844650   -0.6289533964   -1.4067596864
H        0.1944307485   -3.0840758907    0.2125290687
H       -2.1141468270   -1.9067715996    0.3064077822
H       -2.3833698193    0.4382355565    0.6561995529
H       -0.6879236149    2.1012633177    0.6629298808
C        1.7280724312    1.5656431195   -0.6847579633
H        2.1263037593    2.5507424975   -0.8645786003
