13   
Frame   0 IRC: Energy =  -286.8779060000 ; +0.0000 kcal/mol
C        1.2772185908   -0.0116477471    0.0530294759
C        0.5676099322   -0.9802866635    0.9168976817
C       -0.8211106732   -0.9434253186    0.9447223926
C       -1.4497534792   -0.0014459898    0.1399493239
C       -0.6046727323    0.9133089610   -0.6590701187
N        0.7225684459    1.3998354864   -0.0929288259
H        2.3625149957   -0.0013900242    0.1228996299
H        1.1449432867   -1.6674583659    1.5260611799
H       -1.3915846171   -1.6216565236    1.5723928486
H       -2.5288623348    0.0949206640    0.0877033120
H       -1.1182178574    1.7133001153   -1.1873032643
C        0.6919274485    0.4617051209   -1.2286403946
H        1.1474189936    0.6442402853   -2.1957132412
13   
Frame   1 IRC: Energy =  -286.8779020000 ; +0.0025 kcal/mol
C        1.2770902351   -0.0123772564    0.0532587030
C        0.5674305767   -0.9802788065    0.9169007115
C       -0.8211822468   -0.9428838536    0.9450981886
C       -1.4496422362   -0.0015955428    0.1400221784
C       -0.6045333304    0.9131770027   -0.6590038164
N        0.7227059868    1.4001622411   -0.0938392766
H        2.3621820486   -0.0015896446    0.1223718345
H        1.1448147463   -1.6670467740    1.5260165907
H       -1.3913317085   -1.6213720160    1.5721984049
H       -2.5285603270    0.0939997966    0.0866482604
H       -1.1179242574    1.7137690516   -1.1863507784
C        0.6921873033    0.4618681596   -1.2279562001
H        1.1467632094    0.6441676423   -2.1953648005
13   
Frame   2 IRC: Energy =  -286.8778810000 ; +0.0157 kcal/mol
C        1.2773757767   -0.0119049950    0.0527487483
C        0.5679425314   -0.9787519979    0.9189071248
C       -0.8209649479   -0.9420336991    0.9462426228
C       -1.4497093352   -0.0008893510    0.1403920237
C       -0.6042769537    0.9159066536   -0.6564382656
N        0.7242058047    1.3999164067   -0.0922404087
H        2.3629890698   -0.0033512387    0.1202627815
H        1.1454588524   -1.6674188983    1.5264048225
H       -1.3918427882   -1.6204865400    1.5734194299
H       -2.5290877140    0.0881393264    0.0790081938
H       -1.1173917654    1.7172617631   -1.1834817918
C        0.6906267650    0.4620009431   -1.2283281463
H        1.1446747045    0.6416116271   -2.1968971351
13   
Frame   3 IRC: Energy =  -286.8778770000 ; +0.0182 kcal/mol
C        1.2774464454   -0.0118908438    0.0528631983
C        0.5681251130   -0.9784963258    0.9191351778
C       -0.8210141169   -0.9420124502    0.9463563723
C       -1.4496644137   -0.0008936415    0.1405590506
C       -0.6039877318    0.9164257873   -0.6563030235
N        0.7243340420    1.3999100308   -0.0917989512
H        2.3632031402   -0.0035667790    0.1200586451
H        1.1455490444   -1.6675179448    1.5264759172
H       -1.3919358255   -1.6203906948    1.5735948495
H       -2.5293153223    0.0874828816    0.0781162988
H       -1.1173430037    1.7176019832   -1.1831874599
C        0.6901909409    0.4621148151   -1.2289043158
H        1.1444116880    0.6412331820   -2.1969657593
13   
Frame   4 IRC: Energy =  -286.8777690000 ; +0.0860 kcal/mol
C        1.2754173932   -0.0113165502    0.0515118184
C        0.5673103145   -0.9761416931    0.9195321633
C       -0.8213065713   -0.9396616923    0.9483256914
C       -1.4500214518   -0.0016519638    0.1390422769
C       -0.6050063219    0.9190594236   -0.6546238222
N        0.7248953746    1.3993816484   -0.0958970467
H        2.3606598347   -0.0004335172    0.1186080417
H        1.1469492454   -1.6670197271    1.5218742606
H       -1.3911124993   -1.6171887940    1.5772786096
H       -2.5294332887    0.0772498832    0.0660634253
H       -1.1205932569    1.7303282736   -1.1638191162
C        0.6891652504    0.4605946942   -1.2307962959
H        1.1530759770    0.6268000149   -2.1971000062
13   
Frame   5 IRC: Energy =  -286.8777410000 ; +0.1035 kcal/mol
C        1.2751119018   -0.0120265500    0.0522528447
C        0.5672959635   -0.9760165906    0.9196040561
C       -0.8214116126   -0.9395160640    0.9487386450
C       -1.4499648690   -0.0024044034    0.1393936770
C       -0.6042693437    0.9197984670   -0.6549991695
N        0.7246127041    1.3994283051   -0.0967560839
H        2.3604564216    0.0000853264    0.1183829228
H        1.1468857865   -1.6666112336    1.5209785504
H       -1.3907639054   -1.6164633482    1.5774333902
H       -2.5297290538    0.0760950485    0.0645795213
H       -1.1209897025    1.7318428166   -1.1612344008
C        0.6886125185    0.4608657249   -1.2314951402
H        1.1541531910    0.6249225013   -2.1968788131
13   
Frame   6 IRC: Energy =  -286.8774500000 ; +0.2861 kcal/mol
C        1.2725721238   -0.0102007393    0.0483348731
C        0.5662296079   -0.9735221315    0.9190680536
C       -0.8220434068   -0.9378917196    0.9501006894
C       -1.4508901015   -0.0022205113    0.1381779316
C       -0.6061688210    0.9217448344   -0.6544931706
N        0.7245910075    1.3968302607   -0.1026666863
H        2.3572953090    0.0054373844    0.1207151620
H        1.1477366024   -1.6666783190    1.5170305105
H       -1.3900152697   -1.6154654440    1.5815663228
H       -2.5304137072    0.0687972834    0.0575720046
H       -1.1278503163    1.7446625252   -1.1395451627
C        0.6881289460    0.4577565894   -1.2374093330
H        1.1708280258    0.6107499873   -2.1984511951
13   
Frame   7 IRC: Energy =  -286.8773290000 ; +0.3621 kcal/mol
C        1.2720162827   -0.0104441214    0.0479970457
C        0.5664819744   -0.9730579929    0.9191823159
C       -0.8226198497   -0.9381961586    0.9509232684
C       -1.4507488536   -0.0023445098    0.1383573131
C       -0.6049351354    0.9232917383   -0.6559706392
N        0.7241789679    1.3969976632   -0.1032840610
H        2.3570396688    0.0068422945    0.1215777540
H        1.1477109884   -1.6665508619    1.5159395788
H       -1.3896698955   -1.6150982079    1.5824225965
H       -2.5315690197    0.0670742955    0.0559527647
H       -1.1294768969    1.7472097543   -1.1336852005
C        0.6867088619    0.4572754523   -1.2414434878
H        1.1748829068    0.6070006543   -2.1979692487
13   
Frame   8 IRC: Energy =  -286.8761970000 ; +1.0724 kcal/mol
C        1.2665162864   -0.0120244140    0.0401719867
C        0.5630369913   -0.9727298329    0.9130995832
C       -0.8225089656   -0.9321889999    0.9550427779
C       -1.4507528341    0.0018488527    0.1434600267
C       -0.6087877060    0.9255667674   -0.6561075326
N        0.7230520355    1.3897748391   -0.1225326730
H        2.3482047351    0.0179504975    0.1315362364
H        1.1445656673   -1.6637934363    1.5115907521
H       -1.3856676041   -1.6156527018    1.5842032679
H       -2.5295274781    0.0565734782    0.0499942010
H       -1.1452307063    1.7649948912   -1.0972660732
C        0.6881538561    0.4492780418   -1.2534555314
H        1.2089457225    0.5904020170   -2.1997370217
13   
Frame   9 IRC: Energy =  -286.8739250000 ; +2.4981 kcal/mol
C        1.2634401656   -0.0173923777    0.0287711294
C        0.5622521627   -0.9747238528    0.9075433674
C       -0.8231038300   -0.9291047209    0.9582676966
C       -1.4528751170    0.0128459324    0.1549165376
C       -0.6116375704    0.9351115655   -0.6552262081
N        0.7239775001    1.3814831201   -0.1449580142
H        2.3426915120    0.0305675878    0.1483276121
H        1.1421520254   -1.6633829495    1.5120104196
H       -1.3812042887   -1.6178160519    1.5852228637
H       -2.5331896414    0.0454492411    0.0445104518
H       -1.1679265697    1.7813642006   -1.0629873847
C        0.6869527793    0.4376957805   -1.2756096001
H        1.2484708722    0.5779025250   -2.2007888711
13   
Frame  10 IRC: Energy =  -286.8704510000 ; +4.6781 kcal/mol
C        1.2638656714   -0.0250813901    0.0203381727
C        0.5621694441   -0.9773991871    0.9040865690
C       -0.8219321452   -0.9282276763    0.9591144154
C       -1.4580969148    0.0204787490    0.1664030150
C       -0.6203946797    0.9524982061   -0.6374938953
N        0.7183270340    1.3723632087   -0.1695945850
H        2.3406252233    0.0405365130    0.1637162488
H        1.1407547614   -1.6637237341    1.5136797001
H       -1.3773021543   -1.6183428508    1.5853325190
H       -2.5384583889    0.0372837369    0.0395486935
H       -1.1921929332    1.7981855578   -1.0411417422
C        0.6964513987    0.4203349379   -1.2937659303
H        1.2861836832    0.5710939290   -2.2102231807
13   
Frame  11 IRC: Energy =  -286.8651190000 ; +8.0240 kcal/mol
C        1.2658553255   -0.0320546000    0.0148930969
C        0.5617332246   -0.9800079904    0.9021528774
C       -0.8189547032   -0.9287039973    0.9589636819
C       -1.4633851333    0.0259493644    0.1725411190
C       -0.6392158519    0.9736208063   -0.6062878147
N        0.7078410362    1.3625070989   -0.1938666953
H        2.3400027620    0.0472933695    0.1751844890
H        1.1399616884   -1.6640122312    1.5151400428
H       -1.3742197470   -1.6175839839    1.5851664106
H       -2.5424936294    0.0320613379    0.0355338367
H       -1.2123801449    1.8123174087   -1.0291806830
C        0.7190181956    0.4008190258   -1.3073727054
H        1.3162369774    0.5677943913   -2.2228676559
13   
Frame  12 IRC: Energy =  -286.8578610000 ; +12.5784 kcal/mol
C        1.2681325121   -0.0376488960    0.0109010626
C        0.5605169539   -0.9826541127    0.9011870400
C       -0.8144267725   -0.9297941325    0.9584530045
C       -1.4674113351    0.0313012387    0.1735981531
C       -0.6651986112    0.9958040820   -0.5689880992
N        0.6951853148    1.3519725026   -0.2170901172
H        2.3399624562    0.0519958320    0.1838222794
H        1.1394495618   -1.6641018560    1.5162086957
H       -1.3718437667   -1.6164638537    1.5852716627
H       -2.5452570871    0.0286235329    0.0322921128
H       -1.2279944550    1.8230451613   -1.0221620627
C        0.7496208963    0.3820728272   -1.3184544619
H        1.3392643324    0.5658476743   -2.2350392697
13   
Frame  13 IRC: Energy =  -286.8501110000 ; +17.4416 kcal/mol
C        1.2704037731   -0.0424047970    0.0077718808
C        0.5586895356   -0.9853636176    0.9006408760
C       -0.8088112174   -0.9314079304    0.9579088804
C       -1.4703747046    0.0373573848    0.1710163224
C       -0.6950925604    1.0177347627   -0.5295161634
N        0.6814272295    1.3409454421   -0.2395715334
H        2.3403075206    0.0555949898    0.1908649401
H        1.1390946309   -1.6640628328    1.5169918686
H       -1.3699184934   -1.6152407044    1.5857004966
H       -2.5471689484    0.0262506657    0.0296749369
H       -1.2402520916    1.8312030857   -1.0174506210
C        0.7843330326    0.3651398238   -1.3280036625
H        1.3573622936    0.5642537277   -2.2460282215
13   
Frame  14 IRC: Energy =  -286.8443430000 ; +21.0611 kcal/mol
C        1.2730769357   -0.0464674012    0.0050413661
C        0.5562160233   -0.9882169773    0.9000244043
C       -0.8023032437   -0.9338957099    0.9576862238
C       -1.4724875020    0.0451579173    0.1654470052
C       -0.7272869398    1.0383763632   -0.4898061397
N        0.6668392776    1.3292037156   -0.2619876339
H        2.3408359038    0.0587982587    0.1973958200
H        1.1387939033   -1.6639782050    1.5175112264
H       -1.3682161434   -1.6139550001    1.5863779106
H       -2.5487420474    0.0245627714    0.0278827759
H       -1.2502759196    1.8376549987   -1.0133693229
C        0.8213271369    0.3504282450   -1.3364674214
H        1.3722226153    0.5623310235   -2.2557362143
13   
Frame  15 IRC: Energy =  -286.8424830000 ; +22.2283 kcal/mol (Transition State)
C        1.2775570896   -0.0504288451    0.0031975061
C        0.5543339130   -0.9915731536    0.8979631617
C       -0.7967932491   -0.9366075766    0.9564493987
C       -1.4755767649    0.0535064728    0.1611646937
C       -0.7581403272    1.0583271584   -0.4528595524
N        0.6505561708    1.3152580835   -0.2868158703
H        2.3421369983    0.0627989887    0.2060151259
H        1.1385440615   -1.6640446742    1.5179041757
H       -1.3663461016   -1.6123965744    1.5873759562
H       -2.5514902209    0.0230710832    0.0272911833
H       -1.2610673041    1.8450537835   -1.0075180724
C        0.8586780964    0.3378401587   -1.3443010236
H        1.3876076383    0.5591950950   -2.2658666827
13   
Frame  16 IRC: Energy =  -286.8436130000 ; +21.5192 kcal/mol
C        1.2827353431   -0.0542872075    0.0016499331
C        0.5533095427   -0.9950517883    0.8954806430
C       -0.7923784507   -0.9389241062    0.9546755128
C       -1.4797562535    0.0604394327    0.1584574853
C       -0.7870069901    1.0795979581   -0.4173499024
N        0.6333295691    1.3001437357   -0.3125936062
H        2.3434676035    0.0669346765    0.2151730340
H        1.1382896061   -1.6641381841    1.5182847651
H       -1.3644002072   -1.6107049895    1.5884564116
H       -2.5544299801    0.0215988201    0.0269297649
H       -1.2723049183    1.8527662001   -1.0011694734
C        0.8955601030    0.3258311803   -1.3514243624
H        1.4035850324    0.5557942721   -2.2765702055
13   
Frame  17 IRC: Energy =  -286.8456760000 ; +20.2246 kcal/mol
C        1.2909547053   -0.0584498902    0.0016686214
C        0.5539094626   -0.9989370768    0.8893457366
C       -0.7910422021   -0.9405190776    0.9498741186
C       -1.4867014871    0.0661598369    0.1625787938
C       -0.8079667043    1.0983230782   -0.3906201076
N        0.6152232758    1.2825471947   -0.3421220184
H        2.3462609813    0.0736085970    0.2301244378
H        1.1380329547   -1.6648110345    1.5185946586
H       -1.3617563608   -1.6084878708    1.5898002278
H       -2.5610798536    0.0198167429    0.0288900741
H       -1.2882881739    1.8652526659   -0.9900376676
C        0.9280112302    0.3154869472   -1.3585845669
H        1.4244421717    0.5500098870   -2.2895123082
13   
Frame  18 IRC: Energy =  -286.8474660000 ; +19.1014 kcal/mol
C        1.2974264481   -0.0601600579   -0.0026293506
C        0.5542207946   -1.0036595783    0.8829553005
C       -0.7889399095   -0.9425389098    0.9452001257
C       -1.4951993743    0.0721943858    0.1658352145
C       -0.8285605916    1.1098788425   -0.3793028894
N        0.6053902521    1.2710772625   -0.3662261193
H        2.3485814442    0.0833866713    0.2494489594
H        1.1357751008   -1.6648757125    1.5166115168
H       -1.3583784584   -1.6064385010    1.5901014049
H       -2.5672686643    0.0194071968    0.0354871763
H       -1.3038079190    1.8770792929   -0.9719221071
C        0.9549124374    0.3032843685   -1.3677286288
H        1.4458484399    0.5413647391   -2.2978306029
13   
Frame  19 IRC: Energy =  -286.8483420000 ; +18.5517 kcal/mol
C        1.3018230857   -0.0615366000   -0.0008969793
C        0.5545464804   -1.0035728329    0.8772905073
C       -0.7895301099   -0.9420375713    0.9414039599
C       -1.4969189266    0.0729674002    0.1686011910
C       -0.8291132238    1.1115146538   -0.3756600714
N        0.5973785723    1.2632042856   -0.3797535093
H        2.3477961012    0.0890195936    0.2591044274
H        1.1351456119   -1.6658149927    1.5152787434
H       -1.3565092962   -1.6056106571    1.5901155905
H       -2.5723259973    0.0199635040    0.0409454790
H       -1.3133356592    1.8860026839   -0.9635767552
C        0.9632006645    0.2999895758   -1.3703299380
H        1.4578426970    0.5359109571   -2.3025226452
13   
Frame  20 IRC: Energy =  -286.8499840000 ; +17.5213 kcal/mol
C        1.3072237162   -0.0615625613   -0.0044653926
C        0.5546365725   -1.0069490563    0.8701842661
C       -0.7880033903   -0.9438266086    0.9346084038
C       -1.5044605916    0.0768293182    0.1705746614
C       -0.8451060996    1.1171534198   -0.3746316226
N        0.5889489431    1.2527139836   -0.4037919454
H        2.3476965384    0.1027707516    0.2809343982
H        1.1321842249   -1.6662777866    1.5106189802
H       -1.3522322275   -1.6039935517    1.5887852229
H       -2.5783541790    0.0227906816    0.0543578778
H       -1.3289691582    1.8991265336   -0.9408387986
C        0.9844997049    0.2878847251   -1.3787270778
H        1.4819359462    0.5233401509   -2.3076089732
13   
Frame  21 IRC: Energy =  -286.8506430000 ; +17.1078 kcal/mol
C        1.3104460840   -0.0619162773   -0.0027217951
C        0.5552219386   -1.0061132293    0.8653527950
C       -0.7887023776   -0.9436114442    0.9311789340
C       -1.5050813066    0.0767108833    0.1720636598
C       -0.8437794890    1.1165488873   -0.3738797666
N        0.5826671699    1.2471273419   -0.4143223077
H        2.3456699868    0.1085784858    0.2887015837
H        1.1316841915   -1.6673438545    1.5088761057
H       -1.3507373830   -1.6037582499    1.5879483173
H       -2.5828518421    0.0245663287    0.0610807497
H       -1.3366088775    1.9069600779   -0.9336430570
C        0.9897251938    0.2845682584   -1.3804572449
H        1.4923467111    0.5176827920   -2.3101779739
13   
Frame  22 IRC: Energy =  -286.8521180000 ; +16.1822 kcal/mol
C        1.3144050396   -0.0605542272   -0.0049355650
C        0.5551646655   -1.0082140578    0.8589246003
C       -0.7869833311   -0.9456948584    0.9234453380
C       -1.5114380605    0.0793527813    0.1723474713
C       -0.8573218247    1.1194443166   -0.3772694314
N        0.5751445603    1.2375812853   -0.4376756700
H        2.3434643165    0.1247179475    0.3092863894
H        1.1291070296   -1.6681394243    1.5029310218
H       -1.3467574459   -1.6035609443    1.5845347068
H       -2.5882669309    0.0302853654    0.0788733672
H       -1.3503849807    1.9194210847   -0.9107392799
C        1.0070647232    0.2724561030   -1.3876387853
H        1.5168022391    0.5029046283   -2.3120841631
13   
Frame  23 IRC: Energy =  -286.8526310000 ; +15.8603 kcal/mol
C        1.3168662499   -0.0602818075   -0.0033292808
C        0.5562122584   -1.0071851341    0.8551086300
C       -0.7882989030   -0.9456578372    0.9204252211
C       -1.5115346317    0.0788882179    0.1735245977
C       -0.8554964152    1.1185095299   -0.3774773758
N        0.5696982415    1.2332566202   -0.4462314967
H        2.3410984668    0.1302319122    0.3152371969
H        1.1288462212   -1.6691040505    1.5012339037
H       -1.3456008429   -1.6038362954    1.5829192036
H       -2.5919751774    0.0326101881    0.0857000505
H       -1.3562960785    1.9258833790   -0.9048968957
C        1.0107111970    0.2691379804   -1.3886915839
H        1.5257694138    0.4975472970   -2.3135221707
13   
Frame  24 IRC: Energy =  -286.8540020000 ; +15.0000 kcal/mol
C        1.3199931921   -0.0579465185   -0.0042513275
C        0.5566688958   -1.0082346072    0.8492219649
C       -0.7870169712   -0.9479774335    0.9120855711
C       -1.5170210991    0.0813002977    0.1735829866
C       -0.8674353876    1.1201543812   -0.3821717462
N        0.5620315979    1.2237284952   -0.4699656433
H        2.3374352403    0.1482442549    0.3343057453
H        1.1267802054   -1.6699711069    1.4947180855
H       -1.3421763018   -1.6053855855    1.5770475341
H       -2.5970259763    0.0404731765    0.1064999629
H       -1.3686769966    1.9378484795   -0.8828939090
C        1.0257716034    0.2566383784   -1.3948831846
H        1.5506719975    0.4811277883   -2.3132960398
13   
Frame  25 IRC: Energy =  -286.8545930000 ; +14.6291 kcal/mol
C        1.3225557475   -0.0568990334   -0.0026244690
C        0.5571695444   -1.0069358685    0.8451664751
C       -0.7876394194   -0.9483035968    0.9080809621
C       -1.5177503465    0.0809652939    0.1749913068
C       -0.8665446045    1.1197080130   -0.3837223339
N        0.5557563882    1.2185619251   -0.4808040010
H        2.3342829496    0.1562130868    0.3415294182
H        1.1265396497   -1.6710092981    1.4922974158
H       -1.3409939911   -1.6066707804    1.5737996685
H       -2.6008603443    0.0443685208    0.1164463953
H       -1.3750053590    1.9448712401   -0.8749914991
C        1.0302415547    0.2515644153   -1.3962076757
H        1.5622482307    0.4735660820   -2.3139616631
13   
Frame  26 IRC: Energy =  -286.8557460000 ; +13.9056 kcal/mol
C        1.3246145795   -0.0535157311   -0.0033754270
C        0.5569865561   -1.0073052548    0.8406456748
C       -0.7858933599   -0.9505666625    0.8997484265
C       -1.5233039232    0.0835019648    0.1754408701
C       -0.8786484807    1.1212910877   -0.3892059599
N        0.5493171070    1.2098822550   -0.5033101091
H        2.3301489313    0.1748810896    0.3582478039
H        1.1250526316   -1.6716835525    1.4859500568
H       -1.3384291062   -1.6102956270    1.5656488880
H       -2.6041254776    0.0535752169    0.1383474364
H       -1.3847485607    1.9547667996   -0.8548723596
C        1.0433638230    0.2387012497   -1.4017636106
H        1.5856652797    0.4567671646   -2.3115016904
13   
Frame  27 IRC: Energy =  -286.8560090000 ; +13.7406 kcal/mol
C        1.3259462089   -0.0529366432   -0.0019498329
C        0.5583335338   -1.0062223720    0.8386088706
C       -0.7876749248   -0.9505663501    0.8982620624
C       -1.5224777342    0.0831778383    0.1763640117
C       -0.8760155131    1.1202152188   -0.3896205310
N        0.5456649786    1.2074857643   -0.5076543374
H        2.3282508584    0.1781047017    0.3606198642
H        1.1250548337   -1.6721874709    1.4850196215
H       -1.3379387392   -1.6110287024    1.5638121326
H       -2.6063844758    0.0553301676    0.1427591174
H       -1.3876128071    1.9583551928   -0.8523965941
C        1.0442877320    0.2366982759   -1.4017711402
H        1.5905660488    0.4535743790   -2.3120532447
13   
Frame  28 IRC: Energy =  -286.8573060000 ; +12.9267 kcal/mol
C        1.3283344948   -0.0487570513   -0.0002994119
C        0.5595174529   -1.0049941772    0.8329160110
C       -0.7867169602   -0.9531857100    0.8883619727
C       -1.5269623907    0.0864990384    0.1777657884
C       -0.8854294029    1.1213800525   -0.3958474653
N        0.5353531891    1.1954804729   -0.5357222537
H        2.3216256348    0.2013607402    0.3787236093
H        1.1234107312   -1.6726850910    1.4771363963
H       -1.3354575193   -1.6172485150    1.5517364642
H       -2.6112670416    0.0675097380    0.1707317840
H       -1.3984593489    1.9701363413   -0.8301146782
C        1.0573216350    0.2219474232   -1.4067555086
H        1.6187295257    0.4325567380   -2.3086327082
13   
Frame  29 IRC: Energy =  -286.8577450000 ; +12.6512 kcal/mol
C        1.3302722166   -0.0462843104    0.0003357611
C        0.5595238002   -1.0032038204    0.8298937001
C       -0.7881596057   -0.9533662293    0.8845369833
C       -1.5278592647    0.0861086609    0.1797950669
C       -0.8857182631    1.1201157261   -0.3977998623
N        0.5306649435    1.1916267140   -0.5447729524
H        2.3181495338    0.2096713642    0.3843174378
H        1.1237764666   -1.6737449865    1.4752706299
H       -1.3346306095   -1.6199387738    1.5465175321
H       -2.6129779677    0.0723050225    0.1812047025
H       -1.4028609050    1.9761560019   -0.8237604003
C        1.0609008464    0.2155687899   -1.4077836691
H        1.6289188086    0.4249858410   -2.3077549296
13   
Frame  30 IRC: Energy =  -286.8582840000 ; +12.3130 kcal/mol
C        1.3301057016   -0.0440695395    0.0015459878
C        0.5605664502   -1.0029757113    0.8285354074
C       -0.7868858855   -0.9551181051    0.8801966223
C       -1.5298706335    0.0890975190    0.1799998395
C       -0.8914511452    1.1211618377   -0.4011882133
N        0.5267145410    1.1857929406   -0.5579764676
H        2.3151806613    0.2213077942    0.3920888898
H        1.1226103716   -1.6731075040    1.4710165881
H       -1.3339083203   -1.6242322826    1.5395772425
H       -2.6146394783    0.0786493380    0.1950898420
H       -1.4062592455    1.9800924447   -0.8136134776
C        1.0664278918    0.2087032619   -1.4102773514
H        1.6414090907    0.4146980065   -2.3049949094
13   
Frame  31 IRC: Energy =  -286.8585280000 ; +12.1599 kcal/mol
C        1.3316289934   -0.0423303200    0.0019672802
C        0.5600834651   -1.0013304784    0.8264175663
C       -0.7881243958   -0.9548843055    0.8778219076
C       -1.5303819996    0.0881034338    0.1817725254
C       -0.8904965722    1.1203821415   -0.4023597776
N        0.5234926268    1.1834615430   -0.5631025082
H        2.3127230636    0.2261876568    0.3949939191
H        1.1232507975   -1.6741115025    1.4703156666
H       -1.3334560434   -1.6260192034    1.5361923214
H       -2.6154640937    0.0816397172    0.2013969250
H       -1.4088445050    1.9839137495   -0.8103312331
C        1.0682624540    0.2048122385   -1.4105344113
H        1.6473262092    0.4101753295   -2.3045501813
13   
Frame  32 IRC: Energy =  -286.8593770000 ; +11.6271 kcal/mol
C        1.3318524485   -0.0377362254    0.0040489029
C        0.5616273205   -0.9997726102    0.8235173053
C       -0.7872630033   -0.9574979498    0.8701424327
C       -1.5336037362    0.0921517136    0.1834243690
C       -0.8983882917    1.1210095956   -0.4078983468
N        0.5160823177    1.1736221212   -0.5853731702
H        2.3066548064    0.2467093347    0.4076978746
H        1.1219446047   -1.6735603082    1.4635790957
H       -1.3322778248   -1.6340982068    1.5229086995
H       -2.6178358723    0.0932413926    0.2260627100
H       -1.4147429808    1.9918910503   -0.7941811636
C        1.0770895197    0.1919435788   -1.4140548506
H        1.6688606916    0.3920965136   -2.2998738585
13   
Frame  33 IRC: Energy =  -286.8595250000 ; +11.5343 kcal/mol
C        1.3330993474   -0.0362920399    0.0043642989
C        0.5607992845   -0.9984393013    0.8220497183
C       -0.7880107471   -0.9570917398    0.8684217752
C       -1.5338001869    0.0912243354    0.1848839831
C       -0.8972575480    1.1206372930   -0.4088366046
N        0.5136792328    1.1719265100   -0.5886076049
H        2.3046899415    0.2499472078    0.4093094007
H        1.1225778941   -1.6743549593    1.4632898032
H       -1.3320670641   -1.6355413126    1.5204930455
H       -2.6182132180    0.0953321886    0.2303433328
H       -1.4161800726    1.9942458775   -0.7921930339
C        1.0781017231    0.1893787591   -1.4140768692
H        1.6725814134    0.3890271813   -2.2994412451
13   
Frame  34 IRC: Energy =  -286.8603180000 ; +11.0366 kcal/mol
C        1.3328799654   -0.0305947230    0.0067154423
C        0.5611970561   -0.9961107160    0.8191632477
C       -0.7864941151   -0.9596133610    0.8598190480
C       -1.5376972344    0.0950993494    0.1878733062
C       -0.9050429778    1.1218432746   -0.4148717451
N        0.5054915967    1.1610356476   -0.6125359984
H        2.2971850675    0.2732763548    0.4221837697
H        1.1215112465   -1.6736494490    1.4560407113
H       -1.3310932199   -1.6456207657    1.5042720197
H       -2.6191776914    0.1088713572    0.2580332366
H       -1.4209355893    2.0019369700   -0.7757563954
C        1.0871156738    0.1746948578   -1.4174624470
H        1.6950602219    0.3688312035   -2.2934741956
13   
Frame  35 IRC: Energy =  -286.8604100000 ; +10.9789 kcal/mol
C        1.3337534943   -0.0295166535    0.0070636926
C        0.5615743289   -0.9950445335    0.8180772815
C       -0.7881657353   -0.9594033292    0.8589471622
C       -1.5369149025    0.0948693143    0.1885996574
C       -0.9037609514    1.1205470515   -0.4151273441
N        0.5038798060    1.1599153328   -0.6143071479
H        2.2956880725    0.2751882462    0.4229538170
H        1.1219719054   -1.6742282696    1.4559700103
H       -1.3308923609   -1.6465219106    1.5026205600
H       -2.6197829115    0.1101304577    0.2607142056
H       -1.4220131990    2.0039028401   -0.7749568852
C        1.0873236717    0.1731659366   -1.4171625186
H        1.6973387817    0.3669955173   -2.2933924908
13   
Frame  36 IRC: Energy =  -286.8611790000 ; +10.4964 kcal/mol
C        1.3338922757   -0.0213940146    0.0097464675
C        0.5619272183   -0.9908145994    0.8143653820
C       -0.7884948351   -0.9618726686    0.8490843695
C       -1.5402103647    0.0989842711    0.1931536794
C       -0.9100477379    1.1204832152   -0.4219030810
N        0.4941764407    1.1468484573   -0.6402694738
H        2.2853492057    0.3026570271    0.4362949127
H        1.1219651843   -1.6743173464    1.4486253560
H       -1.3301204593   -1.6595775428    1.4824648610
H       -2.6200672146    0.1264200295    0.2932083796
H       -1.4265275581    2.0133248342   -0.7584962461
C        1.0962560032    0.1558853738   -1.4200629812
H        1.7219018419    0.3433729636   -2.2862116256
13   
Frame  37 IRC: Energy =  -286.8613480000 ; +10.3903 kcal/mol
C        1.3338890992   -0.0191817550    0.0117136855
C        0.5621975489   -0.9898071571    0.8134510913
C       -0.7889056441   -0.9622328546    0.8467612054
C       -1.5397119306    0.0994163870    0.1949224479
C       -0.9099023137    1.1197297059   -0.4235030715
N        0.4907624975    1.1435531890   -0.6465419805
H        2.2818696889    0.3099297354    0.4390615738
H        1.1217987730   -1.6740194424    1.4462138415
H       -1.3298067690   -1.6630055350    1.4764871902
H       -2.6206989303    0.1309812201    0.3019264535
H       -1.4274334677    2.0162028593   -0.7551462293
C        1.0975428051    0.1511526286   -1.4200593543
H        1.7283986426    0.3372810188   -2.2852868535
13   
Frame  38 IRC: Energy =  -286.8614200000 ; +10.3451 kcal/mol
C        1.3334283286   -0.0181593170    0.0112938308
C        0.5622221513   -0.9892672822    0.8132817571
C       -0.7888409065   -0.9626672453    0.8457700841
C       -1.5407364248    0.1005486819    0.1951416651
C       -0.9118715306    1.1200172309   -0.4240437437
N        0.4906319460    1.1420747806   -0.6492828102
H        2.2809717265    0.3131450791    0.4406267662
H        1.1219486940   -1.6742037145    1.4455551312
H       -1.3298565880   -1.6647414763    1.4742087427
H       -2.6198809324    0.1327393387    0.3053309741
H       -1.4273425529    2.0164581647   -0.7535017341
C        1.0990565327    0.1494434669   -1.4206700153
H        1.7302695563    0.3346122924   -2.2837106479
13   
Frame  39 IRC: Energy =  -286.8618640000 ; +10.0665 kcal/mol
C        1.3329984439   -0.0104085673    0.0155048165
C        0.5633184695   -0.9851942491    0.8104836503
C       -0.7902502444   -0.9649313735    0.8383805056
C       -1.5413094811    0.1041468503    0.2001752615
C       -0.9139900237    1.1187117654   -0.4293782277
N        0.4819517093    1.1307536283   -0.6694822274
H        2.2706509704    0.3377142546    0.4507453247
H        1.1221707854   -1.6744137134    1.4384399475
H       -1.3294328347   -1.6770275480    1.4549941544
H       -2.6204660938    0.1475559115    0.3337535711
H       -1.4298709650    2.0246160535   -0.7429464073
C        1.1041442590    0.1342737102   -1.4216269993
H        1.7500850052    0.3142032776   -2.2790433698
13   
Frame  40 IRC: Energy =  -286.8618990000 ; +10.0446 kcal/mol
C        1.3327527829   -0.0100552782    0.0150921524
C        0.5625540500   -0.9852406814    0.8106932620
C       -0.7893501395   -0.9648381488    0.8379132430
C       -1.5423621550    0.1043598230    0.2003950173
C       -0.9153189753    1.1194891661   -0.4296333780
N        0.4823089245    1.1303459444   -0.6702468308
H        2.2704855451    0.3386587001    0.4512038497
H        1.1222624659   -1.6744746941    1.4382463073
H       -1.3295571775   -1.6776694734    1.4544413348
H       -2.6195587854    0.1480506557    0.3345266088
H       -1.4294512792    2.0240672064   -0.7423994375
C        1.1051094669    0.1339069019   -1.4221469611
H        1.7501252766    0.3133998782   -2.2780851679
13   
Frame  41 IRC: Energy =  -286.8619590000 ; +10.0069 kcal/mol
C        1.3322728451   -0.0083729085    0.0147688539
C        0.5624332843   -0.9847014802    0.8105664435
C       -0.7895636512   -0.9649044738    0.8366854006
C       -1.5429732228    0.1054212561    0.2010825312
C       -0.9170300291    1.1193943972   -0.4302224214
N        0.4815837372    1.1284856762   -0.6731843727
H        2.2687831137    0.3426596147    0.4528001023
H        1.1224761456   -1.6747510367    1.4371410516
H       -1.3294751797   -1.6797872719    1.4512839012
H       -2.6184620416    0.1503851823    0.3387987312
H       -1.4291651722    2.0244508632   -0.7409157626
C        1.1068942642    0.1316905218   -1.4224401498
H        1.7522259065    0.3100296594   -2.2763643090
13   
Frame  42 IRC: Energy =  -286.8620070000 ; +9.9768 kcal/mol
C        1.3321341353   -0.0074303241    0.0161274860
C        0.5625352179   -0.9840895821    0.8100948600
C       -0.7894337077   -0.9652362710    0.8359483494
C       -1.5427430875    0.1056176099    0.2020306859
C       -0.9163610018    1.1192170856   -0.4311443929
N        0.4802418457    1.1270291941   -0.6754762055
H        2.2671973395    0.3459275230    0.4539425049
H        1.1224494429   -1.6748107258    1.4359220826
H       -1.3294636323   -1.6813867844    1.4486555589
H       -2.6188663449    0.1524293239    0.3425687056
H       -1.4294626751    2.0255789951   -0.7400422721
C        1.1068973734    0.1297193170   -1.4223330067
H        1.7548750947    0.3074346388   -2.2762943560
13   
Frame  43 IRC: Energy =  -286.8620560000 ; +9.9460 kcal/mol
C        1.3318094631   -0.0059826253    0.0158724864
C        0.5624353017   -0.9836726625    0.8100763139
C       -0.7896169748   -0.9653973199    0.8349091103
C       -1.5433192219    0.1065757399    0.2026688958
C       -0.9178728325    1.1192331828   -0.4316111911
N        0.4797647083    1.1254478018   -0.6780622459
H        2.2658100777    0.3495679762    0.4554843551
H        1.1226628339   -1.6751244199    1.4348752780
H       -1.3294505466   -1.6833262096    1.4459181262
H       -2.6180447044    0.1545117740    0.3463566100
H       -1.4292982554    2.0259871114   -0.7389141090
C        1.1083542371    0.1277093094   -1.4226877722
H        1.7567659138    0.3044703418   -2.2748858575
13   
Frame  44 IRC: Energy =  -286.8621060000 ; +9.9147 kcal/mol
C        1.3315963255   -0.0047765440    0.0172897706
C        0.5626138275   -0.9829502854    0.8095540514
C       -0.7895629004   -0.9657327116    0.8340338253
C       -1.5431076754    0.1070089050    0.2037562100
C       -0.9173656952    1.1190234913   -0.4325893235
N        0.4782493315    1.1236518908   -0.6807666948
H        2.2639215022    0.3535018303    0.4568888616
H        1.1226801933   -1.6752997076    1.4333957329
H       -1.3294456487   -1.6852901805    1.4427999211
H       -2.6183397752    0.1569411767    0.3508093927
H       -1.4295713342    2.0271642324   -0.7379752368
C        1.1085870965    0.1254209896   -1.4225431344
H        1.7597447525    0.3013369130   -2.2746533761
13   
Frame  45 IRC: Energy =  -286.8621360000 ; +9.8958 kcal/mol
C        1.3313538694   -0.0037849413    0.0169390861
C        0.5624590314   -0.9827557485    0.8096370843
C       -0.7896494540   -0.9658120148    0.8333680383
C       -1.5436087559    0.1076965854    0.2041806778
C       -0.9186302543    1.1190934226   -0.4328322394
N        0.4781178639    1.1226452545   -0.6824053182
H        2.2630738545    0.3558816582    0.4579386349
H        1.1228424992   -1.6755521395    1.4326942468
H       -1.3294283317   -1.6865453041    1.4410375227
H       -2.6176398625    0.1582725157    0.3531884823
H       -1.4293914282    2.0272903684   -0.7373106093
C        1.1097045466    0.1241509922   -1.4228483354
H        1.7607964217    0.2994193510   -2.2735872709
13   
Frame  46 IRC: Energy =  -286.8621910000 ; +9.8613 kcal/mol
C        1.3310900699   -0.0021308805    0.0183577395
C        0.5626445509   -0.9818534292    0.8090362836
C       -0.7897175668   -0.9661384130    0.8322829902
C       -1.5434526501    0.1083804350    0.2055207840
C       -0.9182891989    1.1188177762   -0.4339523343
N        0.4763835122    1.1204243706   -0.6856370013
H        2.2607220993    0.3607784844    0.4597374419
H        1.1229613118   -1.6759499668    1.4308689995
H       -1.3294244344   -1.6890207707    1.4372113697
H       -2.6177647346    0.1612637057    0.3586431243
H       -1.4296459628    2.0285770603   -0.7362908332
C        1.1102375677    0.1213294515   -1.4226830632
H        1.7642554357    0.2955221766   -2.2730955007
13   
Frame  47 IRC: Energy =  -286.8622100000 ; +9.8494 kcal/mol
C        1.3308617825   -0.0014626199    0.0180711545
C        0.5624854630   -0.9818088694    0.8091837496
C       -0.7896790216   -0.9661979328    0.8318525318
C       -1.5438852830    0.1088969559    0.2058061694
C       -0.9193606937    1.1189411411   -0.4340861609
N        0.4764463074    1.1197434633   -0.6867496535
H        2.2601949471    0.3624215974    0.4604863078
H        1.1230515733   -1.6761130215    1.4303288195
H       -1.3294090736   -1.6898660487    1.4360213648
H       -2.6171948248    0.1621593913    0.3602095819
H       -1.4294606554    2.0285410161   -0.7358834704
C        1.1110868436    0.1205156644   -1.4229617556
H        1.7648626352    0.2942292629   -2.2722786391
13   
Frame  48 IRC: Energy =  -286.8622940000 ; +9.7967 kcal/mol
C        1.3303349168    0.0018040840    0.0198604935
C        0.5626651246   -0.9802736935    0.8082963077
C       -0.7900356614   -0.9666344813    0.8299304062
C       -1.5438818135    0.1104043494    0.2081963672
C       -0.9195319599    1.1184324699   -0.4358629463
N        0.4737771056    1.1158113356   -0.6923165216
H        2.2560187467    0.3712623868    0.4638540939
H        1.1234432777   -1.6771586889    1.4270329767
H       -1.3293720395   -1.6943279441    1.4292311726
H       -2.6168500336    0.1674748315    0.3698110977
H       -1.4297151639    2.0304538489   -0.7343625558
C        1.1126184573    0.1155067175   -1.4227748987
H        1.7705290430    0.2872447842   -2.2708959930
13   
Frame  49 IRC: Energy =  -286.8623050000 ; +9.7898 kcal/mol
C        1.3300979021    0.0021230468    0.0197155828
C        0.5625118884   -0.9803923108    0.8085135843
C       -0.7897833819   -0.9666923431    0.8297151683
C       -1.5442693672    0.1107654299    0.2083331165
C       -0.9204238875    1.1186615728   -0.4359197422
N        0.4740256346    1.1154220027   -0.6929744947
H        2.2558014343    0.3722127817    0.4643125027
H        1.1234306415   -1.6771854553    1.4266234524
H       -1.3293774688   -1.6948016755    1.4285916465
H       -2.6164309662    0.1679624401    0.3706213531
H       -1.4295151379    2.0302407536   -0.7341563371
C        1.1131832669    0.1151421545   -1.4230470928
H        1.7707494418    0.2865416026   -2.2703287396
13   
Frame  50 IRC: Energy =  -286.8624810000 ; +9.6793 kcal/mol
C        1.3274956951    0.0140067812    0.0229865284
C        0.5619765909   -0.9763582015    0.8069854371
C       -0.7908486313   -0.9677433381    0.8238110636
C       -1.5457866721    0.1169311505    0.2164823651
C       -0.9249476557    1.1174589417   -0.4409778531
N        0.4677813203    1.1024524166   -0.7105698846
H        2.2422554878    0.4022316366    0.4762899542
H        1.1251655670   -1.6818633271    1.4146285797
H       -1.3290477846   -1.7094985946    1.4062270960
H       -2.6126900720    0.1855749833    0.4017185204
H       -1.4292314527    2.0342469995   -0.7309663062
C        1.1208330676    0.0991195199   -1.4232777699
H        1.7870445397    0.2634410319   -2.2633377306
