13   
Frame   0 IRC: Energy =  -286.8779060000 ; +0.0000 kcal/mol
C        1.2772185908   -0.0116477471    0.0530294759
C        0.5676099322   -0.9802866635    0.9168976817
C       -0.8211106732   -0.9434253186    0.9447223926
C       -1.4497534792   -0.0014459898    0.1399493239
C       -0.6046727323    0.9133089610   -0.6590701187
N        0.7225684459    1.3998354864   -0.0929288259
H        2.3625149957   -0.0013900242    0.1228996299
H        1.1449432867   -1.6674583659    1.5260611799
H       -1.3915846171   -1.6216565236    1.5723928486
H       -2.5288623348    0.0949206640    0.0877033120
H       -1.1182178574    1.7133001153   -1.1873032643
C        0.6919274485    0.4617051209   -1.2286403946
H        1.1474189936    0.6442402853   -2.1957132412
13   
Frame   1 IRC: Energy =  -286.8755039885 ; +1.5073 kcal/mol
C        1.2655779999   -0.0136617645    0.0366944670
C        0.5627976008   -0.9733380541    0.9114048116
C       -0.8226904127   -0.9312482250    0.9560264511
C       -1.4514001784    0.0052032111    0.1469545220
C       -0.6096569792    0.9284781470   -0.6558387087
N        0.7233343232    1.3872456770   -0.1293729100
H        2.3465230771    0.0217989958    0.1366579863
H        1.1438294519   -1.6636682285    1.5117187602
H       -1.3843061918   -1.6163125726    1.5845142677
H       -2.5306445209    0.0531803339    0.0483215333
H       -1.1521534587    1.7699879013   -1.0868102968
C        0.6877875004    0.4457451898   -1.2602130241
H        1.2210017884    0.5865893889   -2.2000578596
13   
Frame   2 IRC: Energy =  -286.8657500930 ; +7.6280 kcal/mol
C        1.2656198310   -0.0312292542    0.0155375735
C        0.5617848553   -0.9796992136    0.9023817482
C       -0.8193071119   -0.9286476201    0.9589815227
C       -1.4627592222    0.0253018649    0.1718146159
C       -0.6369881868    0.9711207452   -0.6099813518
N        0.7090821540    1.3636736634   -0.1909938597
H        2.3400764362    0.0464936311    0.1738271134
H        1.1400555562   -1.6639780849    1.5149671973
H       -1.3745845793   -1.6176738030    1.5851860711
H       -2.5420160202    0.0326794586    0.0360090333
H       -1.2099907960    1.8106447694   -1.0305963883
C        0.7163472000    0.4031289200   -1.3057622138
H        1.3126798835    0.5681849230   -2.2213710617
13   
Frame   3 IRC: Energy =  -286.8477417202 ; +18.9284 kcal/mol
C        1.2715018089   -0.0440735636    0.0066502870
C        0.5576735088   -0.9865356716    0.9003876523
C       -0.8061379840   -0.9324298176    0.9578174213
C       -1.4712425632    0.0405615533    0.1687286542
C       -0.7083168134    1.0262135640   -0.5132047635
N        0.6754350417    1.3361223778   -0.2487792333
H        2.3405245608    0.0569107735    0.1935475825
H        1.1389711032   -1.6640280709    1.5172052015
H       -1.3692192314   -1.6147125849    1.5859787531
H       -2.5478151189    0.0255573415    0.0289387838
H       -1.2443695071    1.8338532914   -1.0157741756
C        0.7995288340    0.3590968547   -1.3314802597
H        1.3634663607    0.5634639523   -2.2500159037
13   
Frame   4 IRC: Energy =  -286.8435338416 ; +21.5689 kcal/mol (Transition State)
C        1.2823725975   -0.0540169226    0.0017583433
C        0.5533813016   -0.9948081039    0.8956545477
C       -0.7926877149   -0.9387618293    0.9547997766
C       -1.4794634731    0.0599537670    0.1586471299
C       -0.7849848308    1.0781079020   -0.4198374143
N        0.6345363221    1.3012025217   -0.3107878316
H        2.3433743923    0.0666449645    0.2145315068
H        1.1383074311   -1.6641316335    1.5182581042
H       -1.3645365204   -1.6108234880    1.5883807238
H       -2.5542240450    0.0217019546    0.0269550828
H       -1.2715177042    1.8522259321   -1.0016142036
C        0.8929764551    0.3266724299   -1.3509253603
H        1.4024657886    0.5560325056   -2.2758204053
13   
Frame   5 IRC: Energy =  -286.8486960331 ; +18.3295 kcal/mol
C        1.3029875206   -0.0615421975   -0.0016663682
C        0.5545659052   -1.0043007835    0.8757583241
C       -0.7892009325   -0.9424233073    0.9399387637
C       -1.4985449919    0.0738000719    0.1690266928
C       -0.8325614625    1.1127304333   -0.3754383266
N        0.5955610522    1.2609424619   -0.3849364587
H        2.3477746344    0.0919844935    0.2638112075
H        1.1345071045   -1.6659147761    1.5142740475
H       -1.3555871135   -1.6052619916    1.5898287487
H       -2.5736257391    0.0205730744    0.0438373387
H       -1.3167064123    1.8888323292   -0.9586742035
C        0.9677929702    0.2973796378   -1.3721404530
H        1.4630374647    0.5332005540   -2.3036193131
13   
Frame   6 IRC: Energy =  -286.8532090285 ; +15.4976 kcal/mol
C        1.3181846028   -0.0592972242   -0.0037180257
C        0.5564047817   -1.0076276034    0.8526267480
C       -0.7877584266   -0.9466358042    0.9169091339
C       -1.5138477861    0.0799051770    0.1735492151
C       -0.8605300159    1.1192030171   -0.3794565735
N        0.5664659011    1.2292394590   -0.4562380713
H        2.3395540106    0.1378261119    0.3232767045
H        1.1279751664   -1.6694696109    1.4984867638
H       -1.3441570191   -1.6044894929    1.5804436438
H       -2.5941046492    0.0359253096    0.0944695200
H       -1.3615160083    1.9309279956   -0.8956201970
C        1.0170608283    0.2638680121   -1.3913020302
H        1.5362686142    0.4906246534   -2.3134268314
13   
Frame   7 IRC: Energy =  -286.8569002805 ; +13.1813 kcal/mol
C        1.3275874061   -0.0500644853   -0.0008156864
C        0.5591471067   -1.0053783735    0.8346968160
C       -0.7870166247   -0.9523663381    0.8914588572
C       -1.5255595283    0.0854601212    0.1773272933
C       -0.8824846084    1.1210156765   -0.3938995944
N        0.5385788590    1.1992358935   -0.5269422226
H        2.3236980961    0.1940859308    0.3730605083
H        1.1239250291   -1.6725294285    1.4796023778
H       -1.3362336791   -1.6153028718    1.5555138997
H       -2.6097397077    0.0636998005    0.1619815483
H       -1.3950664011    1.9664510356   -0.8370847686
C        1.0532444505    0.2265616933   -1.4051963295
H        1.6099196019    0.4391313458   -2.3097026992
13   
Frame   8 IRC: Energy =  -286.8597533080 ; +11.3910 kcal/mol
C        1.3330361864   -0.0346517586    0.0050412029
C        0.5609138046   -0.9977688918    0.8212186914
C       -0.7875741024   -0.9578177251    0.8659450141
C       -1.5349221631    0.0923399681    0.1857446217
C       -0.8994990058    1.1209845002   -0.4105741467
N        0.5113219782    1.1687909852   -0.5954966893
H        2.3025292569    0.2566637666    0.4130159853
H        1.1222708018   -1.6741518399    1.4612027594
H       -1.3317866903   -1.6384432292    1.5158229445
H       -2.6184908939    0.0992301718    0.2383153717
H       -1.4175492057    1.9964601751   -0.7874608571
C        1.0806968771    0.1851512026   -1.4150515912
H        1.6790531562    0.3832126750   -2.2977233066
13   
Frame   9 IRC: Energy =  -286.8616421661 ; +10.2057 kcal/mol
C        1.3332132254   -0.0142810426    0.0134008990
C        0.5627707205   -0.9872292419    0.8118816569
C       -0.7895461027   -0.9638001564    0.8420725304
C       -1.5410231673    0.1023491122    0.1976603463
C       -0.9129315697    1.1193640097   -0.4267129813
N        0.4862885804    1.1364099692   -0.6593900754
H        2.2758074875    0.3254388582    0.4456898308
H        1.1220598228   -1.6743087925    1.4419948775
H       -1.3296445528   -1.6708891084    1.4645942604
H       -2.6201737320    0.1401531680    0.3195529054
H       -1.4286077048    2.0205401610   -0.7482201219
C        1.1016022992    0.1418529136   -1.4211488653
H        1.7401846937    0.3244001500   -2.2813752628
13   
Frame  10 IRC: Energy =  -286.8624810000 ; +9.6793 kcal/mol
C        1.3274956951    0.0140067812    0.0229865284
C        0.5619765909   -0.9763582015    0.8069854371
C       -0.7908486313   -0.9677433381    0.8238110636
C       -1.5457866721    0.1169311505    0.2164823651
C       -0.9249476557    1.1174589417   -0.4409778531
N        0.4677813203    1.1024524166   -0.7105698846
H        2.2422554878    0.4022316366    0.4762899542
H        1.1251655670   -1.6818633271    1.4146285797
H       -1.3290477846   -1.7094985946    1.4062270960
H       -2.6126900720    0.1855749833    0.4017185204
H       -1.4292314527    2.0342469995   -0.7309663062
C        1.1208330676    0.0991195199   -1.4232777699
H        1.7870445397    0.2634410319   -2.2633377306
