13   
From qcopt_rct.out: Frame 2 / 2, Energy=    -286.8567772848
C        1.2762168731   -0.0345091358    0.0308777796
C        0.5640206778   -1.0674329586    0.8147314180
C       -0.8212809828   -1.0082333104    0.8734540096
C       -1.4462579644    0.0127037076    0.1708127980
C       -0.5997189955    0.9721359415   -0.5712834224
N        0.7458582198    1.3941060175    0.0094843319
H        2.3629473639   -0.0440276529    0.0859408862
H        1.1396109545   -1.8206862799    1.3424277946
H       -1.3936152337   -1.7289444646    1.4511603407
H       -2.5230739528    0.1455464369    0.1680659076
H       -1.1082535901    1.8193499802   -1.0270940241
C        0.6792342969    0.5509959340   -1.1962958251
H        1.1243123334    0.8089957843   -2.1522819943
13   
From qcopt_prd.out: Frame 2 / 2, Energy=    -286.9243191254
C        1.3037862433    0.7963403226   -0.7235793355
C        0.4950568881   -1.2759114272    0.5013976081
C       -0.8220657155   -0.9830644847    0.6937771954
C       -1.5121576069    0.2120058749    0.2812764614
C       -0.9987761215    1.3071326290   -0.3891130854
N        0.2335113074    1.6160616896   -0.8542268235
H        2.2046724849    1.2286071951   -1.1646275069
H        0.8542293750   -2.2310758640    0.8792139363
H       -1.4267605472   -1.7241905972    1.2126411201
H       -2.5705188659    0.2641755927    0.5251757819
H       -1.7230536602    2.0985482700   -0.5945782512
C        1.4775470865   -0.4510524894   -0.1552250289
H        2.4845291321   -0.8575767114   -0.2121320717
