13   
From optimize.out: Frame 1 / 2, Energy=    -286.8516348652
C        1.0984280998    0.1833698482    0.5383745806
C        0.8752620403   -0.9764411698   -0.4447151440
C       -0.4341580857   -0.9841728305   -0.7444337796
C       -1.0770136966    0.1721538520    0.0477733834
C       -0.3961764528    1.4568939510   -0.4667576251
N        0.8526068123    1.4877831580   -0.2047264531
H        2.0458961776    0.2017927456    1.0748897167
H        1.6543758370   -1.6244571172   -0.8307698462
H       -0.9636497254   -1.6338623538   -1.4326992095
H       -2.1641722463    0.1734137747    0.1279384290
H       -0.8990312387    2.2499896698   -1.0175988039
C       -0.2095794365    0.0337633389    1.3033542732
H       -0.3827880851   -0.7402268669    2.0493704784
