13   
From optimize.out: Frame 1 / 2, Energy=    -286.9243518580
C        1.5347172290    0.3454639589   -0.6183732222
C        1.1735731804   -0.9593315632   -0.3365047952
C       -0.0772104441   -1.4426443751    0.1894066043
C       -1.3051828010    0.7329737107    0.4116508386
C       -0.3746910561    1.6477457784   -0.0419429535
N        0.8918913162    1.5300991777   -0.5072437733
H        2.5461612253    0.4645600824   -1.0131766898
H        1.9325769451   -1.7111748747   -0.5388862410
H       -0.1452158814   -2.5187605063    0.3364218789
H       -2.2588357145    1.1501332227    0.7262513208
H       -0.7104166550    2.6869346095   -0.0314645072
C       -1.1698170241   -0.6976319825    0.5187254273
H       -2.0375503197   -1.2283672386    0.9051361124
