13   
Frame  76 IRC: Energy =  -286.8575840000 ; +11.8675 kcal/mol
C        1.1290306652    0.2003782706    0.4389300968
C        1.0271923875   -0.8095820377   -0.7114818623
C       -0.4106860712   -1.0260874292   -0.4658438804
C       -1.1190603794    0.3115164347   -0.0600503210
C       -0.3880110979    1.5620825015   -0.4196008795
N        0.8558930538    1.5497692232   -0.1109381476
H        2.0070494255    0.1809600550    1.0836372157
H        1.7391646816   -1.6044900340   -0.8984335998
H       -1.0227048808   -1.8670319411   -0.7725431337
H       -2.2005938284    0.2669609232    0.0116614918
H       -0.8431084263    2.4113473388   -0.9266710514
C       -0.2473240822   -0.3909763680    0.9295544276
H       -0.5268414475   -0.7848469369    1.9017796439
