13   
Frame  74 IRC: Energy =  -286.8792760000 ; -1.7570 kcal/mol
C        1.5171147127    0.3898650180   -0.4866259266
C        0.8563339301   -0.7750372977    0.1479962299
C       -0.5831653465   -1.0684753004   -0.2537426911
C       -1.1188896638    0.3093044839    0.0928934935
C       -0.4517806280    1.4991271120   -0.4896618527
N        0.8489651624    1.5061990854   -0.7782581044
H        2.5715462649    0.3466387863   -0.7496782899
H        1.4838792890   -1.6342773664    0.3765330482
H       -1.0644533321   -1.9653053434   -0.6167268720
H       -2.1902453272    0.3817308901    0.2702423826
H       -1.0171527529    2.4098464789   -0.6733614219
C       -0.3181621689   -0.5294496994    1.0789369381
H       -0.5339901397   -0.8701668475    2.0814530661
