13   
Frame  64 IRC: Energy =  -286.8735030000 ; -8.8849 kcal/mol
C        1.1313057399    0.1421300425    0.4813772685
C        0.8226872974   -0.9981175663   -0.5023523275
C       -0.5007680845   -0.9567041943   -0.7421187399
C       -1.0673532594    0.2040250099    0.1023678996
C       -0.3777508977    1.4769089354   -0.4259374702
N        0.8848369478    1.4624368921   -0.2296839344
H        2.1047766271    0.1243014400    0.9675931947
H        1.5571892978   -1.6761527830   -0.9209851724
H       -1.0827382583   -1.5775976645   -1.4135531402
H       -2.1477035724    0.2357297152    0.2398643643
H       -0.8835005457    2.2975228476   -0.9303717150
C       -0.1409036481    0.0160663831    1.3091726063
H       -0.3000776440   -0.7505490577    2.0646271661
