13   
Frame 121 IRC: Energy =  -286.7509098683 ; +70.0751 kcal/mol
C        1.6148949458    0.1453523747   -0.8653715982
C        0.1778689086   -1.5844679029    1.3089479915
C       -1.0329454095   -1.1983333284    0.9254017826
C       -1.4361548166    0.0371933324    0.2567814419
C       -0.6313608641    1.0273458886   -0.1903000268
N        0.7688133857    1.0769653373   -0.0246791162
H        1.9156185398   -0.8867212377   -0.8398037336
H        0.5843256393   -2.4354017206    1.8406849593
H       -1.8609574360   -1.8827083751    1.1550248290
H       -2.5054704514    0.1794319896    0.1287308446
H       -1.0748377863    1.9230318826   -0.6255782455
C        1.5938033784    1.3702900506   -1.2441114669
H        1.8864019663    2.2280217088   -1.8257276616
