13   
From optimize.out: Frame 1 / 3, Energy=    -286.8584534010
C        1.5167238018    0.3971141064   -0.4795135170
C        0.8528758001   -0.7816226035    0.1261445954
C       -0.5925401501   -1.0629742414   -0.2531984901
C       -1.1146988188    0.3149714432    0.1132696753
C       -0.4546603066    1.4960375634   -0.4943343640
N        0.8466819037    1.5095803830   -0.7747615121
H        2.5822989295    0.3740000018   -0.6992134275
H        1.4767085912   -1.6490900353    0.3351312672
H       -1.0847949075   -1.9529046960   -0.6199379679
H       -2.1822715549    0.3918113226    0.3128184767
H       -1.0324335230    2.3891447552   -0.7244592174
C       -0.3064872331   -0.5373723251    1.0777413015
H       -0.5074025323   -0.8886956743    2.0803131798
13   
From optimize.out: Frame 2 / 3, Energy=    -286.8584558379
C        1.5164190444    0.3969749173   -0.4801375989
C        0.8530152601   -0.7814482013    0.1267439452
C       -0.5920529983   -1.0630808078   -0.2533103490
C       -1.1147839628    0.3153727163    0.1138851944
C       -0.4544957090    1.4960924389   -0.4935647904
N        0.8463932585    1.5089849450   -0.7766554402
H        2.5822572414    0.3744114198   -0.6987412414
H        1.4770254607   -1.6491200282    0.3347019187
H       -1.0843416439   -1.9529140123   -0.6202370557
H       -2.1825201233    0.3921202431    0.3124842415
H       -1.0319885779    2.3893174460   -0.7240124400
C       -0.3068477134   -0.5381335123    1.0780477739
H       -0.5080795364   -0.8885775647    2.0807958417
