13   
From optimize.out: Frame 1 / 38, Energy=    -286.8417987779
C        0.1864202585    0.2945987051    1.0571418259
C        1.3300606716   -2.0785041351   -1.4532907658
C        1.2617763854   -3.2783805536   -1.5770823014
C       -1.3683980243    1.8459128665    0.6099324789
C       -0.3196927648    1.7616250548   -0.4075281709
N        0.5900797722    0.8143919217   -0.1232817559
H        0.7647572417   -0.4877024206    1.5413587446
H        1.3762090790   -1.0159146795   -1.3093507042
H        1.1980929201   -4.3418641365   -1.6664990757
H       -2.2085556319    2.5272159757    0.6101895783
H       -0.2128854715    2.3807433360   -1.2973167478
C       -1.0367918697    0.9144144549    1.5500156612
H       -1.5610725662    0.6634636106    2.4657112329
13   
From optimize.out: Frame 2 / 38, Energy=    -286.8420421431
C        0.1647583579    0.2854775079    1.0516524986
C        1.3294842970   -2.0945727021   -1.4557912887
C        1.2938586780   -3.2957779646   -1.5603449409
C       -1.3518568241    1.8816268675    0.6293117507
C       -0.3282926321    1.7586121795   -0.4050268059
N        0.5780022648    0.8058741747   -0.1246385816
H        0.7141887186   -0.5240479813    1.5214988592
H        1.3480172691   -1.0301518785   -1.3170876254
H        1.2660880692   -4.3524901130   -1.6998564417
H       -2.1780517817    2.5809610892    0.6337245341
H       -0.2413432054    2.3595273524   -1.3047196762
C       -1.0373694185    0.9338857965    1.5570713001
H       -1.5574837927    0.6910756720    2.4742064177
13   
From optimize.out: Frame 3 / 38, Energy=    -286.8421977493
C        0.1463179545    0.2801722724    1.0538969723
C        1.3233138300   -2.1117118796   -1.4677518264
C        1.3261843365   -3.3115992663   -1.5862923817
C       -1.3437552459    1.9042008190    0.6395450691
C       -0.3270556117    1.7662773660   -0.3970100397
N        0.5600131907    0.7918990995   -0.1255915516
H        0.6718045417   -0.5501261350    1.5137716795
H        1.3103576090   -1.0471626042   -1.3285321513
H        1.3325839928   -4.3707702771   -1.7004371506
H       -2.1604059090    2.6149263900    0.6431929040
H       -0.2499116143    2.3554932297   -1.3038102153
C       -1.0373247488    0.9546879636    1.5684169302
H       -1.5521223254    0.7237130220    2.4906017617
13   
From optimize.out: Frame 4 / 38, Energy=    -286.8423749798
C        0.1083838453    0.2722204596    1.0590816155
C        1.3182402597   -2.1458795918   -1.4820116426
C        1.3882686155   -3.3419028282   -1.6210680552
C       -1.3306394965    1.9448704371    0.6574107724
C       -0.3373064064    1.7661338502   -0.3943549934
N        0.5165780438    0.7586887018   -0.1319561895
H        0.6066350818   -0.5782593264    1.5130111159
H        1.2502681846   -1.0844981286   -1.3350848887
H        1.4478219745   -4.3996914773   -1.7381807632
H       -2.1185412173    2.6869404044    0.6692003846
H       -0.2599892175    2.3440242719   -1.3092796892
C       -1.0443063351    0.9899880731    1.5881115060
H       -1.5454133324    0.7873651542    2.5251208276
13   
From optimize.out: Frame 5 / 38, Energy=    -286.8426817248
C        0.0271834509    0.2569183363    1.0785644474
C        1.3185601512   -2.2114084530   -1.4953445162
C        1.4942569213   -3.3876449799   -1.6994815105
C       -1.3067786727    2.0156180692    0.6820638137
C       -0.3654480974    1.7436316009   -0.3962414900
N        0.4255556606    0.6829510562   -0.1364337638
H        0.4807686963   -0.6157625865    1.5384497686
H        1.1573200170   -1.1662376662   -1.3088750931
H        1.6572436789   -4.4293223141   -1.8621862219
H       -2.0359749354    2.8150929230    0.7007876183
H       -0.2810097417    2.2921523724   -1.3297069266
C       -1.0517010490    1.0697987404    1.6309223122
H       -1.5199760800    0.9342129013    2.5974815623
13   
From optimize.out: Frame 6 / 38, Energy=    -286.8429856564
C       -0.0491968358    0.2464520522    1.1099424492
C        1.3235422099   -2.2713107674   -1.4921833307
C        1.5939133500   -3.4110339208   -1.7827653759
C       -1.2755953194    2.0789397416    0.6974449669
C       -0.3994576534    1.7039647139   -0.4033888872
N        0.3272152279    0.5978259580   -0.1337794411
H        0.3639028210   -0.6370557510    1.5877036958
H        1.0795431802   -1.2542127706   -1.2467967673
H        1.8342818747   -4.4241989076   -2.0161440123
H       -1.9441502420    2.9297285207    0.7136633577
H       -0.3086549142    2.2140987735   -1.3582007815
C       -1.0536695230    1.1480204244    1.6683933842
H       -1.4916741757    1.0787819334    2.6561107425
13   
From optimize.out: Frame 7 / 38, Energy=    -286.8432247352
C       -0.1253838894    0.2310084698    1.1444442722
C        1.3276865904   -2.3170198941   -1.4774059205
C        1.6736921969   -3.4092090927   -1.8568877840
C       -1.2407748948    2.1263840002    0.6999717132
C       -0.4313998338    1.6521434219   -0.4125793264
N        0.2309179708    0.5092586503   -0.1224204035
H        0.2511716800   -0.6550656226    1.6471327665
H        1.0153057295   -1.3368138339   -1.1654824238
H        1.9814260940   -4.3798615267   -2.1758957948
H       -1.8511744107    3.0197875820    0.7044561538
H       -0.3340785216    2.1195272066   -1.3883899341
C       -1.0446852826    1.2212754269    1.7000780768
H       -1.4527034285    1.2185852123    2.7029786048
13   
From optimize.out: Frame 8 / 38, Energy=    -286.8433739825
C       -0.1937219478    0.2143362034    1.1819912923
C        1.3256906507   -2.3463301551   -1.4593057552
C        1.7357082249   -3.3825422031   -1.9223256770
C       -1.1973413736    2.1614673177    0.6942862528
C       -0.4602074175    1.5899761278   -0.4227260867
N        0.1384349430    0.4197508188   -0.1047157053
H        0.1497888081   -0.6692831956    1.7115255598
H        0.9567494031   -1.4090894876   -1.0806450603
H        2.1011807528   -4.3038279899   -2.3169850170
H       -1.7509075584    3.0911730133    0.6823094409
H       -0.3584865083    2.0111940943   -1.4182985729
C       -1.0308327586    1.2823288581    1.7224644761
H       -1.4160552184    1.3408465978    2.7324248526
13   
From optimize.out: Frame 9 / 38, Energy=    -286.8434482811
C       -0.2287038117    0.2044367209    1.2092545329
C        1.3210144604   -2.3523914924   -1.4562485346
C        1.7627164114   -3.3599594699   -1.9518939204
C       -1.1737875130    2.1720177884    0.6853368228
C       -0.4688477355    1.5505385364   -0.4268303143
N        0.0917944639    0.3700121872   -0.0866599370
H        0.0975949247   -0.6749416262    1.7560347144
H        0.9281928560   -1.4391867566   -1.0428235873
H        2.1525826742   -4.2512776558   -2.3887543474
H       -1.7007040555    3.1168560724    0.6588945287
H       -0.3645987595    1.9432152048   -1.4333285324
C       -1.0203118652    1.3134794236    1.7333999043
H       -1.3969420501    1.4072010673    2.7436186705
13   
From optimize.out: Frame 10 / 38, Energy=    -286.8434617051
C       -0.2508065394    0.1995767891    1.2294953716
C        1.3170877916   -2.3556566353   -1.4593848396
C        1.7811792839   -3.3472350288   -1.9729255126
C       -1.1596065032    2.1787262233    0.6799437611
C       -0.4722529175    1.5242584002   -0.4286075842
N        0.0621148165    0.3374348631   -0.0735445795
H        0.0642387627   -0.6776696199    1.7872457548
H        0.9089278838   -1.4568233219   -1.0242225738
H        2.1871643813   -4.2211001148   -2.4328310886
H       -1.6704002397    3.1330063193    0.6433478003
H       -0.3665929247    1.8986593108   -1.4424431997
C       -1.0146700728    1.3344634337    1.7415752905
H       -1.3863837224    1.4523593814    2.7523513998
13   
From optimize.out: Frame 12 / 38, Energy=    -286.8435007544
C       -0.2696021998    0.1949507390    1.2543581777
C        1.3092001373   -2.3486859879   -1.4710863664
C        1.7902622136   -3.3262459732   -1.9852963218
C       -1.1439568964    2.1785899589    0.6712686612
C       -0.4693115023    1.4926369262   -0.4284326236
N        0.0387958417    0.3051708542   -0.0533455656
H        0.0340440098   -0.6801720108    1.8227404235
H        0.8930012237   -1.4635895399   -1.0181468884
H        2.2107590576   -4.1835921523   -2.4657627243
H       -1.6432064554    3.1383984024    0.6201856363
H       -0.3639451495    1.8462614023   -1.4499446720
C       -1.0078550479    1.3520579273    1.7478867069
H       -1.3781852324    1.4942194539    2.7555755564
13   
From optimize.out: Frame 14 / 38, Energy=    -286.8435464120
C       -0.2544057087    0.2002293089    1.2434797657
C        1.3108433493   -2.3468370132   -1.4744162117
C        1.7801922492   -3.3376675704   -1.9785330416
C       -1.1538143573    2.1750297743    0.6758721837
C       -0.4667427422    1.5102503423   -0.4260502929
N        0.0588300025    0.3254172629   -0.0609876041
H        0.0559396738   -0.6762262127    1.8042682721
H        0.9036474505   -1.4515688925   -1.0363082743
H        2.1922570690   -4.2099584182   -2.4321121250
H       -1.6645284565    3.1283237603    0.6308616683
H       -0.3611240971    1.8760546503   -1.4426356232
C       -1.0139433465    1.3396576178    1.7443230507
H       -1.3871510859    1.4672953904    2.7522382323
13   
From optimize.out: Frame 15 / 38, Energy=    -286.8435607128
C       -0.2627848869    0.1986935290    1.2548397306
C        1.3077443780   -2.3452345966   -1.4799439715
C        1.7864464333   -3.3300262347   -1.9871275001
C       -1.1468496029    2.1765877730    0.6728074541
C       -0.4665869412    1.4969078300   -0.4258485201
N        0.0478394701    0.3105997343   -0.0524397912
H        0.0419285869   -0.6768277452    1.8203930400
H        0.8952819553   -1.4558223673   -1.0334781114
H        2.2050999386   -4.1957451524   -2.4470170365
H       -1.6517954074    3.1325774175    0.6215790078
H       -0.3606691665    1.8534208637   -1.4459895926
C       -1.0117178460    1.3481193527    1.7476645699
H       -1.3839369113    1.4867495959    2.7545607210
13   
From optimize.out: Frame 16 / 38, Energy=    -286.8435924696
C       -0.2659356088    0.1994980600    1.2677691943
C        1.3030028641   -2.3382429419   -1.4973193157
C        1.7867463150   -3.3250970813   -1.9937448372
C       -1.1426979179    2.1753793839    0.6706625395
C       -0.4626462055    1.4849965516   -0.4228596495
N        0.0468032784    0.3005526114   -0.0402112437
H        0.0333293203   -0.6753839677    1.8362387779
H        0.8898547829   -1.4497933147   -1.0497741311
H        2.2136957188   -4.1925733677   -2.4455101056
H       -1.6476732114    3.1307948797    0.6120507449
H       -0.3559777901    1.8336069635   -1.4457652241
C       -1.0127710232    1.3538947771    1.7514901591
H       -1.3857305226    1.5023674461    2.7569730913
13   
From optimize.out: Frame 17 / 38, Energy=    -286.8436133714
C       -0.2686473331    0.2000370920    1.2778176232
C        1.2995501829   -2.3332451753   -1.5099549814
C        1.7880568659   -3.3207470015   -2.0015173388
C       -1.1385829335    2.1745836389    0.6688630831
C       -0.4612765014    1.4759287051   -0.4204275160
N        0.0454533163    0.2918237721   -0.0306484060
H        0.0260615634   -0.6736749086    1.8496599453
H        0.8845953378   -1.4462090657   -1.0610548937
H        2.2209171682   -4.1894373358   -2.4441712353
H       -1.6426919940    3.1301099866    0.6042082742
H       -0.3528636007    1.8178726059   -1.4454851276
C       -1.0137439743    1.3585353650    1.7542302772
H       -1.3868280975    1.5144223213    2.7584802961
13   
From optimize.out: Frame 18 / 38, Energy=    -286.8436293186
C       -0.2686776359    0.2004320732    1.2824737679
C        1.2981267564   -2.3293281581   -1.5183304791
C        1.7874835943   -3.3190040683   -2.0055615346
C       -1.1371038776    2.1736340097    0.6681152973
C       -0.4610921306    1.4719562712   -0.4183396114
N        0.0477992467    0.2890175538   -0.0246259158
H        0.0234877291   -0.6720618079    1.8571407608
H        0.8826258608   -1.4419738171   -1.0711866313
H        2.2228796031   -4.1905867502   -2.4393033855
H       -1.6412142827    3.1286402191    0.5998992451
H       -0.3508929767    1.8107605529   -1.4441959646
C       -1.0150997038    1.3599154166    1.7552540568
H       -1.3883221830    1.5185985051    2.7586603946
13   
From optimize.out: Frame 19 / 38, Energy=    -286.8436460629
C       -0.2748558302    0.1986697247    1.2914183751
C        1.2967880789   -2.3265668953   -1.5250497827
C        1.7915404409   -3.3126981222   -2.0149801609
C       -1.1321716964    2.1736406490    0.6651926697
C       -0.4632770957    1.4612039015   -0.4172155041
N        0.0420612868    0.2777833383   -0.0156206156
H        0.0125845407   -0.6703018197    1.8737992222
H        0.8760377022   -1.4431151264   -1.0740422541
H        2.2319703550   -4.1819363862   -2.4471282978
H       -1.6303861154    3.1313485411    0.5908948314
H       -0.3494836546    1.7926438200   -1.4451559059
C       -1.0146344042    1.3660718308    1.7574267456
H       -1.3861736079    1.5332565445    2.7604606773
13   
From optimize.out: Frame 20 / 38, Energy=    -286.8436644083
C       -0.2799646048    0.1968474266    1.2982878632
C        1.2971682345   -2.3239618943   -1.5292403403
C        1.7954744918   -3.3071187398   -2.0216927317
C       -1.1288208150    2.1736650147    0.6625948433
C       -0.4659670919    1.4519435527   -0.4161198309
N        0.0377312010    0.2693411854   -0.0076845007
H        0.0033924404   -0.6683063554    1.8894724033
H        0.8711916491   -1.4439819160   -1.0765130152
H        2.2374219093   -4.1747553839   -2.4554047499
H       -1.6200645684    3.1343213859    0.5828524041
H       -0.3491770127    1.7774263816   -1.4456375596
C       -1.0142952841    1.3706363194    1.7583882792
H       -1.3840905491    1.5439430232    2.7606969353
13   
From optimize.out: Frame 21 / 38, Energy=    -286.8436786777
C       -0.2889036813    0.1942314082    1.3075994842
C        1.2977122229   -2.3230440266   -1.5314832915
C        1.8020788214   -3.2995765712   -2.0308163149
C       -1.1246199207    2.1738378810    0.6586024009
C       -0.4685229744    1.4394883293   -0.4159577223
N        0.0276183407    0.2562213917    0.0004202754
H       -0.0097750912   -0.6661015232    1.9088245687
H        0.8643338429   -1.4488794644   -1.0731599809
H        2.2467894133   -4.1621549696   -2.4723018175
H       -1.6057790322    3.1394629266    0.5728632845
H       -0.3486079506    1.7577460635   -1.4474682727
C       -1.0127294084    1.3780126401    1.7603149346
H       -1.3795945823    1.5607559146    2.7625624517
13   
From optimize.out: Frame 22 / 38, Energy=    -286.8436892262
C       -0.2905590947    0.1940570211    1.3093416841
C        1.3001518991   -2.3229463805   -1.5306106259
C        1.8039267591   -3.2982451540   -2.0316330867
C       -1.1261534463    2.1730476257    0.6574054541
C       -0.4687350570    1.4372740866   -0.4154842627
N        0.0260764684    0.2549005342    0.0019475407
H       -0.0115868463   -0.6639343361    1.9145954365
H        0.8644034842   -1.4496616912   -1.0734552316
H        2.2452046173   -4.1610798126   -2.4772605104
H       -1.6026130487    3.1407289067    0.5702512329
H       -0.3486661059    1.7553622898   -1.4466938457
C       -1.0129711082    1.3786385465    1.7597740176
H       -1.3784785208    1.5618583639    2.7618221971
13   
From optimize.out: Frame 23 / 38, Energy=    -286.8436966992
C       -0.2972502945    0.1934181705    1.3165340174
C        1.3007049754   -2.3231246198   -1.5312025652
C        1.8090457320   -3.2930928081   -2.0384357487
C       -1.1232217121    2.1737761923    0.6549330169
C       -0.4689383160    1.4284062985   -0.4150320572
N        0.0176310274    0.2449959739    0.0070714826
H       -0.0217425432   -0.6629943387    1.9265228647
H        0.8600302000   -1.4545910687   -1.0692117898
H        2.2525413724   -4.1517046468   -2.4909990247
H       -1.5925731283    3.1447826456    0.5634035351
H       -0.3495739317    1.7410930101   -1.4482889631
C       -1.0117913489    1.3846553263    1.7615860105
H       -1.3748620325    1.5743798649    2.7631192217
13   
From optimize.out: Frame 24 / 38, Energy=    -286.8437041288
C       -0.2985533538    0.1944640072    1.3184122052
C        1.3021877474   -2.3234497135   -1.5315734871
C        1.8094187357   -3.2926713009   -2.0408712194
C       -1.1242587313    2.1730256642    0.6542785022
C       -0.4676542135    1.4270669048   -0.4142018967
N        0.0164041002    0.2434506524    0.0082130834
H       -0.0234098733   -0.6613806437    1.9285221096
H        0.8606779885   -1.4554466735   -1.0699007988
H        2.2528221971   -4.1517039000   -2.4928967815
H       -1.5914037120    3.1450222125    0.5616464749
H       -0.3496738899    1.7396181197   -1.4473303258
C       -1.0125205310    1.3857305585    1.7619379214
H       -1.3740364640    1.5762741123    2.7637642126
13   
From optimize.out: Frame 25 / 38, Energy=    -286.8437115974
C       -0.3028666293    0.1951433924    1.3235111291
C        1.3034305901   -2.3235176434   -1.5325260873
C        1.8118130344   -3.2894837439   -2.0472888773
C       -1.1218733504    2.1735601099    0.6528765905
C       -0.4676791378    1.4211290612   -0.4130698393
N        0.0115774792    0.2368214130    0.0127516226
H       -0.0310533538   -0.6602173363    1.9352429412
H        0.8590401826   -1.4586497962   -1.0682383726
H        2.2579860714   -4.1463781719   -2.5004821309
H       -1.5843997925    3.1475661104    0.5567017492
H       -0.3515480439    1.7294973694   -1.4476398326
C       -1.0127947050    1.3898821886    1.7632414518
H       -1.3716323449    1.5846470469    2.7649196557
13   
From optimize.out: Frame 26 / 38, Energy=    -286.8437195197
C       -0.3091382254    0.1952598758    1.3299747405
C        1.3052700096   -2.3235804962   -1.5332465382
C        1.8147322337   -3.2849726694   -2.0558041522
C       -1.1179284671    2.1742564583    0.6506316705
C       -0.4688449186    1.4129412885   -0.4119121279
N        0.0048770548    0.2279513284    0.0193003693
H       -0.0419448714   -0.6588340804    1.9444583583
H        0.8570945282   -1.4631327557   -1.0649318406
H        2.2651397020   -4.1380087627   -2.5115596390
H       -1.5742488586    3.1509709424    0.5497744595
H       -0.3541265154    1.7151894778   -1.4483150881
C       -1.0129168866    1.3954500289    1.7648379798
H       -1.3679647853    1.5965093644    2.7667918081
13   
From optimize.out: Frame 27 / 38, Energy=    -286.8437274703
C       -0.3173553660    0.1947491072    1.3376920861
C        1.3076615505   -2.3240368436   -1.5326169934
C        1.8190431548   -3.2789923246   -2.0652673742
C       -1.1120480288    2.1757178394    0.6477668228
C       -0.4713422877    1.4026316428   -0.4110301816
N       -0.0044497914    0.2169706354    0.0272737917
H       -0.0561545191   -0.6579395972    1.9560210891
H        0.8547096436   -1.4695416952   -1.0580990585
H        2.2738827662   -4.1256187457   -2.5280253989
H       -1.5604927678    3.1556724728    0.5411844979
H       -0.3580651097    1.6964441776   -1.4500185949
C       -1.0123969668    1.4024206013    1.7665079939
H       -1.3629922777    1.6115227297    2.7686113199
13   
From optimize.out: Frame 28 / 38, Energy=    -286.8437355889
C       -0.3262921360    0.1938582317    1.3455280932
C        1.3105637168   -2.3248200749   -1.5310394095
C        1.8236116000   -3.2728990696   -2.0740937463
C       -1.1057507525    2.1771423038    0.6445321466
C       -0.4743476211    1.3921742608   -0.4104357820
N       -0.0147693622    0.2061467870    0.0354569922
H       -0.0711617880   -0.6573214572    1.9680165345
H        0.8532216637   -1.4766113570   -1.0493065173
H        2.2821255143   -4.1116727143   -2.5471198242
H       -1.5460851067    3.1601179621    0.5320746647
H       -0.3621538508    1.6768919990   -1.4520498716
C       -1.0114912773    1.4095988703    1.7680623844
H       -1.3574706000    1.6273942583    2.7703743355
13   
From optimize.out: Frame 29 / 38, Energy=    -286.8437423071
C       -0.3351391793    0.1929438033    1.3534396706
C        1.3132519050   -2.3258471442   -1.5293636152
C        1.8287376171   -3.2669568957   -2.0819488448
C       -1.0996891430    2.1784390306    0.6413876456
C       -0.4772583968    1.3820878495   -0.4101036370
N       -0.0256241093    0.1957222552    0.0429856581
H       -0.0855323354   -0.6567953859    1.9804354531
H        0.8520218844   -1.4838261007   -1.0397710692
H        2.2894944758   -4.0975625925   -2.5671618425
H       -1.5321735854    3.1640942448    0.5231625443
H       -0.3655896978    1.6579337650   -1.4542697987
C       -1.0102722923    1.4166290864    1.7695433345
H       -1.3522271427    1.6431380841    2.7716645014
13   
From optimize.out: Frame 30 / 38, Energy=    -286.8437473217
C       -0.3402124436    0.1928370085    1.3578346884
C        1.3156945341   -2.3269157117   -1.5281629027
C        1.8315386661   -3.2643269029   -2.0858453998
C       -1.0967120867    2.1788036584    0.6396624763
C       -0.4789737260    1.3771339601   -0.4097578209
N       -0.0320426862    0.1910699072    0.0470997059
H       -0.0934124661   -0.6561096843    1.9872647482
H        0.8537193217   -1.4881951019   -1.0336665592
H        2.2918238863   -4.0899158778   -2.5796742171
H       -1.5249711988    3.1651957524    0.5180234154
H       -0.3672824668    1.6481582219   -1.4550634587
C       -1.0097926762    1.4203372774    1.7702725296
H       -1.3493766578    1.6519274925    2.7720127947
13   
From optimize.out: Frame 31 / 38, Energy=    -286.8437497454
C       -0.3541668506    0.1918790335    1.3718644118
C        1.3186084801   -2.3280666022   -1.5290831701
C        1.8403917337   -3.2549052271   -2.0998449484
C       -1.0884032778    2.1800300177    0.6349289185
C       -0.4824062338    1.3603046316   -0.4087398015
N       -0.0495255133    0.1733969679    0.0590252287
H       -0.1152373069   -0.6538959955    2.0100177464
H        0.8510006565   -1.4989586265   -1.0220542097
H        2.3041423072   -4.0696357247   -2.6095183509
H       -1.5043037142    3.1706316569    0.5035344629
H       -0.3698354830    1.6185284117   -1.4577671714
C       -1.0080438308    1.4320842599    1.7734817253
H       -1.3422209669    1.6786071967    2.7741551584
13   
From optimize.out: Frame 32 / 38, Energy=    -286.8437562219
C       -0.3508838692    0.1929626887    1.3690783925
C        1.3187072528   -2.3282801418   -1.5302982104
C        1.8385481223   -3.2580627678   -2.0971334209
C       -1.0911372108    2.1793130999    0.6364841878
C       -0.4816096022    1.3646624703   -0.4083822459
N       -0.0456556348    0.1783802931    0.0564060569
H       -0.1097642339   -0.6532099869    2.0055218770
H        0.8542449270   -1.4965863188   -1.0258043247
H        2.2997268680   -4.0761015065   -2.6027413941
H       -1.5101130031    3.1681902521    0.5068606411
H       -0.3683230637    1.6265297908   -1.4560805567
C       -1.0090597604    1.4292807765    1.7729173057
H       -1.3446807919    1.6729213505    2.7731716918
13   
From optimize.out: Frame 33 / 38, Energy=    -286.8437627762
C       -0.3531299164    0.1940638273    1.3721281574
C        1.3202423431   -2.3289121841   -1.5334294120
C        1.8400035892   -3.2579612417   -2.1012731626
C       -1.0910193234    2.1790753511    0.6364264860
C       -0.4822305035    1.3621057823   -0.4069531698
N       -0.0481756756    0.1762417970    0.0592266475
H       -0.1131489635   -0.6508225975    2.0104430604
H        0.8572654707   -1.4982869256   -1.0269456434
H        2.3005659081   -4.0763026246   -2.6066047141
H       -1.5082260069    3.1679263089    0.5044715008
H       -0.3675969297    1.6230124655   -1.4546089732
C       -1.0098331976    1.4313670144    1.7739637899
H       -1.3447167945    1.6784930269    2.7731554333
13   
From optimize.out: Frame 34 / 38, Energy=    -286.8437704842
C       -0.3598492320    0.1953542928    1.3800411956
C        1.3232787238   -2.3302999980   -1.5388256918
C        1.8444735515   -3.2556597246   -2.1115307316
C       -1.0887131497    2.1794089740    0.6352650835
C       -0.4844109719    1.3540923592   -0.4043924800
N       -0.0558692763    0.1683613564    0.0667599881
H       -0.1237134161   -0.6466025348    2.0231839742
H        0.8608940918   -1.5035164241   -1.0264137495
H        2.3055302188   -4.0724288661   -2.6190165735
H       -1.5004835648    3.1696761892    0.4977758802
H       -0.3675260780    1.6106139842   -1.4528096462
C       -1.0104347550    1.4375257581    1.7763030461
H       -1.3431761419    1.6934746337    2.7736597050
13   
From optimize.out: Frame 35 / 38, Energy=    -286.8437754040
C       -0.3678820678    0.1958550567    1.3885437775
C        1.3265307572   -2.3319474662   -1.5425424073
C        1.8497588222   -3.2522178923   -2.1220834375
C       -1.0850849155    2.1803804137    0.6332527513
C       -0.4871281616    1.3448596676   -0.4021769475
N       -0.0651663553    0.1589175100    0.0751588234
H       -0.1365292673   -0.6434186040    2.0366961412
H        0.8634476705   -1.5100851045   -1.0229025366
H        2.3118564239   -4.0653387003   -2.6349535002
H       -1.4906100840    3.1727026588    0.4901172663
H       -0.3688405903    1.5953825314   -1.4519408944
C       -1.0100374804    1.4447917484    1.7785489001
H       -1.3403147516    1.7101181807    2.7742820639
13   
From optimize.out: Frame 36 / 38, Energy=    -286.8437791893
C       -0.3732354508    0.1960017125    1.3939112385
C        1.3291464441   -2.3335879432   -1.5445858356
C        1.8535672700   -3.2503556728   -2.1288151537
C       -1.0825922695    2.1814981059    0.6317767026
C       -0.4892787315    1.3392284223   -0.4006741170
N       -0.0713599528    0.1529376197    0.0808892745
H       -0.1451319353   -0.6417210548    2.0449131043
H        0.8658071718   -1.5149408439   -1.0198512782
H        2.3157312371   -4.0608717299   -2.6460952259
H       -1.4845749562    3.1752762938    0.4856618064
H       -0.3704218045    1.5858895709   -1.4511961538
C       -1.0092380323    1.4498010747    1.7797387713
H       -1.3384189900    1.7208444448    2.7743268669
13   
From optimize.out: Frame 37 / 38, Energy=    -286.8437821882
C       -0.3748932636    0.1959379949    1.3951270285
C        1.3307529072   -2.3351121262   -1.5448149369
C        1.8552075695   -3.2506886687   -2.1307166943
C       -1.0819460726    2.1825414105    0.6311409494
C       -0.4903903926    1.3384235631   -0.4000852488
N       -0.0733813306    0.1517040024    0.0827562291
H       -0.1477116063   -0.6416762845    2.0463492484
H        0.8679879664   -1.5173402427   -1.0179887029
H        2.3162690258   -4.0603398706   -2.6502419845
H       -1.4839294641    3.1767054071    0.4854425503
H       -0.3717025674    1.5844079869   -1.4505361238
C       -1.0082457394    1.4517083322    1.7797514803
H       -1.3380170321    1.7237284956    2.7738162052
