13   
From qcts2.out: Frame 4 / 4, Energy=    -286.8438515908
C        1.5415221120    0.4811609243   -0.1516428458
C        0.7757010328   -0.8138899312   -0.0199200762
C       -0.3931485247   -0.5881292990   -0.9245051420
C       -1.0537328198    0.5590798266    0.8178551345
C       -0.5913378995    0.9110773054   -0.5923554280
N        0.7996500782    1.4661576944   -0.5016370191
H        2.5979180092    0.6041083537    0.0775732442
H        1.2968699087   -1.7679853500   -0.0090710642
H       -0.9357738055   -1.2673827131   -1.5658130234
H       -1.7871214331    1.0323573591    1.4543089084
H       -1.2412678854    1.5292213364   -1.2088125347
C       -0.4049654533   -0.6772187833    0.9488108791
H       -0.6256758852   -1.4707377116    1.6577385029
