13   
Frame  59 IRC: Energy =  -286.8734940000 ; -8.8592 kcal/mol
C        1.5188731107    0.4265845352   -0.1304215167
C        0.6711528669   -0.8581953245   -0.0611550905
C       -0.2857587804   -0.4733424048   -1.1952985030
C       -1.0862928721    0.4165772456    0.7567081818
C       -0.5842708130    0.9023703352   -0.6135865516
N        0.8212158864    1.4525105299   -0.4359184148
H        2.5859780293    0.4828549821    0.0744824409
H        1.1978338096   -1.8116088804   -0.0880632137
H       -1.0475255999   -1.1467664840   -1.5826381289
H       -1.8890061097    0.8730616446    1.3232794843
H       -1.2220693287    1.5985979342   -1.1540818266
C       -0.3250772513   -0.6389045068    1.0975285494
H       -0.3550529479   -1.2237396064    2.0091645894
