13   
From optimize.out: Frame 2 / 3, Energy=    -286.8549693703
C        1.6724632058    0.3311160337   -0.3250581421
C        1.0799246500   -0.8827735733   -0.3043633466
C       -0.3513940272   -1.0536564506   -0.0024302983
C       -1.1382218189    0.3660142204    0.1145343891
C       -0.2937296476    1.5327570016   -0.2046341556
N        0.9889836982    1.5484623459   -0.3224042152
H        2.7439088975    0.4214526934   -0.4842405892
H        1.6596517633   -1.7760802000   -0.5235045788
H       -0.8555977654   -1.9047507362   -0.4640319070
H       -2.1712900106    0.4414158576   -0.2307127162
H       -0.8220975223    2.4664347263   -0.4127188969
C       -0.8868972542   -0.5249655330    1.2503662136
H       -1.6257041688   -0.9654263854    1.9091982433
13   
From optimize.out: Frame 1 / 2, Energy=    -286.8516599220
C        1.1402084052    0.1755049134    0.4448917613
C        0.8122076139   -1.0252423513   -0.4554839766
C       -0.5152931893   -1.0058040347   -0.6584513312
C       -1.0649362654    0.2081377606    0.1173216711
C       -0.3890246658    1.4432950532   -0.5131936245
N        0.8758998134    1.4475045746   -0.3470000053
H        2.1251132494    0.1904955930    0.9092635306
H        1.5408866563   -1.7187045516   -0.8606278038
H       -1.1122489463   -1.6730959986   -1.2705491609
H       -2.1424761581    0.2492542523    0.2768111026
H       -0.9099504129    2.2253369147   -1.0630576167
C       -0.1104057958    0.1067347597    1.3122066213
H       -0.2499803047   -0.6234168852    2.1078688321
