13   
Frame   0 IRC: Energy =  -286.8602700000 ; +0.0000 kcal/mol
C        1.1589794086    0.1304803584    0.4226177283
C        0.9553820095   -0.9980227466   -0.5804675674
C       -0.4620418026   -1.1026358935   -0.2571907161
C       -1.1011036645    0.3530283047    0.0160240134
C       -0.3133957348    1.4875886170   -0.5301053754
N        0.9466080268    1.4197347000   -0.2859754158
H        2.0590070336    0.1416224907    1.0376818322
H        1.5509601667   -1.3202361628   -1.4286876436
H       -1.1554880756   -1.9102025371   -0.4648202392
H       -2.1819595149    0.3701997332    0.1120341634
H       -0.7368100768    2.2969437411   -1.1219874517
C       -0.2333638937   -0.3043977920    1.0290870642
H       -0.4867738820   -0.5641028131    2.0517896073
13   
Frame   1 IRC: Energy =  -286.8594581070 ; +0.5095 kcal/mol
C        1.1596495561    0.1438238469    0.4014386315
C        0.9518268938   -0.9842479580   -0.5994904163
C       -0.4669080528   -1.0859711462   -0.2845341882
C       -1.1071128920    0.3598498861    0.0172682877
C       -0.3303246864    1.5084540980   -0.5167351114
N        0.9323233754    1.4416920483   -0.2879538447
H        2.0657987534    0.1553349036    1.0076301665
H        1.5973790709   -1.4517623265   -1.3310735061
H       -1.1568924890   -1.8955467632   -0.4947764247
H       -2.1863262008    0.3714034918    0.1272697433
H       -0.7662576329    2.3276424726   -1.0864553132
C       -0.2272534812   -0.3029271455    1.0138039961
H       -0.4659022144   -0.5877454080    2.0336079796
13   
Frame   2 IRC: Energy =  -286.8582563755 ; +1.2636 kcal/mol
C        1.1606260526    0.1554106854    0.3826320494
C        0.9413390080   -0.9435571837   -0.6477272375
C       -0.4769017284   -1.0648675760   -0.3125306106
C       -1.1080649377    0.3586895894    0.0128701012
C       -0.3424846577    1.5242379845   -0.5035125074
N        0.9199560209    1.4648626204   -0.2809992712
H        2.0741705983    0.1578675711    0.9770342364
H        1.6225666859   -1.5670388128   -1.2110730380
H       -1.1539523628   -1.8890402697   -0.5182339744
H       -2.1847107732    0.3678099760    0.1386918854
H       -0.7891893082    2.3470130159   -1.0584083075
C       -0.2164429749   -0.3088822736    1.0006611632
H       -0.4469116228   -0.6025053269    2.0205955109
13   
Frame   3 IRC: Energy =  -286.8571334664 ; +1.9682 kcal/mol
C        1.1639412451    0.1601392513    0.3805638364
C        0.9399287620   -0.9243032572   -0.6641806946
C       -0.4762394595   -1.0499013379   -0.3305470790
C       -1.1069971951    0.3573295585    0.0351591762
C       -0.3534074331    1.5222158520   -0.4969693560
N        0.9118892756    1.4669758205   -0.2852900722
H        2.0798495900    0.1659354778    0.9706540787
H        1.6190438675   -1.6232936893   -1.1308326590
H       -1.1628153762   -1.8375919102   -0.6203465423
H       -2.1828466508    0.3526375866    0.1797021915
H       -0.8054128000    2.3207354929   -1.0816655260
C       -0.2057854193   -0.3144336195    1.0081202782
H       -0.4211484061   -0.5964452256    2.0356323681
13   
Frame   4 IRC: Energy =  -286.8517159053 ; +5.3678 kcal/mol
C        1.1635384660    0.1590893232    0.3949198226
C        0.9273199731   -0.9486251987   -0.6099127524
C       -0.4963866310   -1.0249009302   -0.3860213426
C       -1.0980492997    0.3379844499    0.0426985964
C       -0.3579711284    1.5107782449   -0.5045678902
N        0.9075076793    1.4599779779   -0.2956032815
H        2.0963976009    0.1658763440    0.9568254199
H        1.5951465468   -1.6318297730   -1.1063134811
H       -1.1584320083   -1.8161956895   -0.7376608793
H       -2.1715396935    0.3276612805    0.1936217190
H       -0.8233026776    2.3015998130   -1.0878366640
C       -0.1951615878   -0.2622548971    1.0577506506
H       -0.3890672400   -0.5791609447    2.0821000826
13   
Frame   5 IRC: Energy =  -286.8441791669 ; +10.0972 kcal/mol (Transition State)
C        1.1567176486    0.1597226507    0.4048018825
C        0.8947276062   -0.9723915906   -0.5837830006
C       -0.5012420843   -1.0162848893   -0.4948675512
C       -1.0842698078    0.2947504916    0.0477819789
C       -0.3590646562    1.4969489401   -0.5100399717
N        0.9042482402    1.4610429619   -0.2977950432
H        2.1004211846    0.1620108570    0.9470213043
H        1.5827708168   -1.6339955810   -1.0908655571
H       -1.1610238542   -1.8282237605   -0.7870132151
H       -2.1615163560    0.3175887782    0.1949286432
H       -0.8277841188    2.2940221797   -1.0835369320
C       -0.1676976623   -0.1443380275    1.1463101116
H       -0.3762869569   -0.5908530104    2.1070573506
13   
Frame   6 IRC: Energy =  -286.8567459456 ; +2.2114 kcal/mol
C        1.1480100229    0.1633531745    0.4161758490
C        0.8549176041   -0.9902846415   -0.5644377763
C       -0.5028046923   -1.0230843706   -0.5932720814
C       -1.0689280342    0.2506159310    0.0637687708
C       -0.3571121684    1.4819571648   -0.5137061201
N        0.9039382177    1.4627684810   -0.3034329108
H        2.1033066757    0.1588158617    0.9378819111
H        1.5701675070   -1.6370633171   -1.0687460285
H       -1.1631337401   -1.8398598687   -0.8363275406
H       -2.1517945264    0.3087217295    0.1957254477
H       -0.8311167112    2.2867898335   -1.0773408433
C       -0.1426523421   -0.0150506229    1.2325737437
H       -0.3627978127   -0.6076793553    2.1111375788
13   
Frame   7 IRC: Energy =  -286.8670048466 ; -4.2262 kcal/mol
C        1.1438884740    0.1715736600    0.4285005760
C        0.8242749458   -1.0011410357   -0.5238724200
C       -0.5192679486   -1.0265057241   -0.6301534111
C       -1.0595235326    0.2299593467    0.0866750259
C       -0.3577946223    1.4639205532   -0.5203504841
N        0.9045850698    1.4581578183   -0.3219443560
H        2.1141526341    0.1551166987    0.9205301492
H        1.5499454702   -1.6459548883   -1.0139985631
H       -1.1629207271   -1.8392313222   -0.9459473809
H       -2.1397503728    0.2930239962    0.2084693125
H       -0.8434442367    2.2700328414   -1.0667152553
C       -0.1283783187    0.0898012141    1.2876502786
H       -0.3257668349   -0.6187531583    2.0911565284
13   
Frame   8 IRC: Energy =  -286.8717337654 ; -7.1936 kcal/mol
C        1.1445005623    0.1748078427    0.4328228305
C        0.8102302513   -1.0171318707   -0.4793488215
C       -0.5273651173   -1.0229065426   -0.6276689115
C       -1.0628942598    0.2264376658    0.1037721057
C       -0.3684780334    1.4537924941   -0.5270238888
N        0.8964372494    1.4473818062   -0.3478119497
H        2.1250504210    0.1649728023    0.9046377163
H        1.5366609208   -1.6814283050   -0.9345586105
H       -1.1507581086   -1.7796291620   -1.0911848302
H       -2.1410518719    0.2869826795    0.2448930057
H       -0.8690244122    2.2538743948   -1.0679252636
C       -0.1150677307    0.1118272280    1.2998450731
H       -0.2782398708   -0.6189810330    2.0895515446
13   
Frame   9 IRC: Energy =  -286.8734850000 ; -8.2925 kcal/mol
C        1.1460113781    0.1724902262    0.4345259844
C        0.8038347721   -1.0327776003   -0.4564551188
C       -0.5279478551   -1.0092895015   -0.6459723416
C       -1.0631183828    0.2191852587    0.1190320712
C       -0.3825188890    1.4446309703   -0.5245189690
N        0.8848204453    1.4382170763   -0.3628816863
H        2.1326030269    0.1813594371    0.8936805701
H        1.5247260376   -1.7330428731   -0.8618255674
H       -1.1378730901   -1.6926216701   -1.2261384860
H       -2.1389706337    0.2721304685    0.2844528312
H       -0.8971172888    2.2284210206   -1.0761632120
C       -0.1016683683    0.1140012979    1.3080214241
H       -0.2427811521   -0.6027041105    2.1142425001
