13   
From optimize.out: Frame 1 / 2, Energy=    -286.8516599220
C        1.1402084052    0.1755049134    0.4448917613
C        0.8122076139   -1.0252423513   -0.4554839766
C       -0.5152931893   -1.0058040347   -0.6584513312
C       -1.0649362654    0.2081377606    0.1173216711
C       -0.3890246658    1.4432950532   -0.5131936245
N        0.8758998134    1.4475045746   -0.3470000053
H        2.1251132494    0.1904955930    0.9092635306
H        1.5408866563   -1.7187045516   -0.8606278038
H       -1.1122489463   -1.6730959986   -1.2705491609
H       -2.1424761581    0.2492542523    0.2768111026
H       -0.9099504129    2.2253369147   -1.0630576167
C       -0.1104057958    0.1067347597    1.3122066213
H       -0.2499803047   -0.6234168852    2.1078688321
