13   
From qcts1.out: Frame 53 / 53, Energy=    -286.8208495939
C        1.1519393712    0.1575589660    0.4096546565
C        0.8932461612   -0.9744926528   -0.5772143052
C       -0.5038962819   -1.0158898259   -0.4845049864
C       -1.0888692322    0.2958265697    0.0500971271
C       -0.3591797694    1.4948604870   -0.5058267151
N        0.9031194744    1.4587618637   -0.2961867868
H        2.0945588588    0.1616069189    0.9560764059
H        1.5770335939   -1.6099373511   -1.1225553809
H       -1.1647746255   -1.8264107622   -0.7834626945
H       -2.1665736053    0.3174135797    0.1963239787
H       -0.8278259317    2.2907778411   -1.0824328366
C       -0.1738789022   -0.1469041903    1.1472746208
H       -0.3775468863   -0.6238705331    2.0946428655
