13   
From optimize.out: Frame 9 / 10, Energy=    -286.8516701831
C        1.1030750516    0.2531806621    0.4984432056
C        0.8963496700   -0.9760527209   -0.4003436869
C       -0.4177137077   -1.0422269276   -0.6696209273
C       -1.0805697987    0.1430142782    0.0613758349
C       -0.4529943674    1.4115206774   -0.5505327308
N        0.7995107947    1.4966839090   -0.3220509565
H        2.0604414015    0.3338840246    1.0111666601
H        1.6867061885   -1.6270479997   -0.7575397395
H       -0.9411106401   -1.7521448548   -1.3007557173
H       -2.1651157948    0.1168866147    0.1676736568
H       -0.9925392699    2.1529675838   -1.1374028384
C       -0.1830197872    0.1122953535    1.3034683201
H       -0.3130197409   -0.6229606004    2.0961189190
13   
From optimize.out: Frame 8 / 10, Energy=    -286.8516669333
C        1.1019364660    0.2600987576    0.4956900485
C        0.8984231253   -0.9707443972   -0.3999757928
C       -0.4153927039   -1.0330302320   -0.6734151764
C       -1.0788163384    0.1562103168    0.0612072768
C       -0.4459693945    1.4195089189   -0.5488375380
N        0.8058561374    1.5013968045   -0.3195638654
H        2.0552385525    0.3460899098    1.0152290835
H        1.6913099221   -1.6120431101   -0.7688919008
H       -0.9626767457   -1.7991657594   -1.2099028925
H       -2.1667795527    0.1351571563    0.1228658904
H       -0.9857846508    2.1676000296   -1.1271825586
C       -0.1902000731    0.1076506305    1.3036180439
H       -0.3071447442   -0.6787290252    2.0491593814
13   
From optimize.out: Frame 7 / 10, Energy=    -286.8516202451
C        1.0990618546    0.2563787542    0.4879139024
C        0.9058759033   -0.9657757382   -0.4012718443
C       -0.4063823062   -1.0319211024   -0.6804577017
C       -1.0749919422    0.1871779664    0.0816974026
C       -0.4377172758    1.4257360549   -0.5412934457
N        0.8205065717    1.4949181349   -0.3264650391
H        2.0453876430    0.3735753509    1.0159566439
H        1.7026077040   -1.5889864748   -0.7914144823
H       -0.9922172537   -1.8439619223   -1.0924552045
H       -2.1654174112    0.1594332823    0.0460201121
H       -0.9817771977    2.1809446906   -1.1061479583
C       -0.2098304574    0.0915310948    1.3046637346
H       -0.3051058324   -0.7390500911    2.0032538802
13   
From optimize.out: Frame 5 / 10, Energy=    -286.8511322306
C        1.0871011280    0.2371206585    0.4699797345
C        0.9235108569   -0.9677584268   -0.4032850535
C       -0.3938776216   -1.0345698985   -0.6712094213
C       -1.0674799626    0.2186061502    0.1183186033
C       -0.4322754032    1.4242162238   -0.5277302452
N        0.8400320624    1.4784720796   -0.3320398945
H        2.0347254894    0.4134260738    0.9891015866
H        1.7222258895   -1.5662459878   -0.8171855539
H       -1.0068892102   -1.8602925380   -0.9940033654
H       -2.1516333004    0.2070012287   -0.0320788766
H       -0.9886225600    2.1759904105   -1.0864793007
C       -0.2417997667    0.0656635409    1.3104384793
H       -0.3250176017   -0.7916295149    1.9761733075
13   
From optimize.out: Frame 4 / 10, Energy=    -286.8493441340
C        1.0718117945    0.2223441357    0.4438976735
C        0.9473833215   -0.9629283415   -0.4230513064
C       -0.3775657874   -1.0241405829   -0.6458163650
C       -1.0505430970    0.2343036199    0.1371140605
C       -0.4258566853    1.4333570737   -0.5205163587
N        0.8497821851    1.4884393474   -0.3325687545
H        2.0236166583    0.4168258614    0.9535916367
H        1.7420065337   -1.5559868459   -0.8529017954
H       -1.0036272611   -1.8737225242   -0.8796158425
H       -2.1263006432    0.2355991278   -0.0864756645
H       -0.9928457932    2.1798926331   -1.0762535566
C       -0.2845178032    0.0386120199    1.3192864937
H       -0.3733434227   -0.8325955245    1.9633097793
13   
From optimize.out: Frame 3 / 10, Energy=    -286.8455455059
C        1.0571771042    0.2114747962    0.4225605103
C        0.9669343569   -0.9726960490   -0.4487715333
C       -0.3583461849   -1.0535493979   -0.6516417870
C       -1.0467167320    0.2637312174    0.1596182785
C       -0.4282700614    1.4664495591   -0.5129516103
N        0.8447279784    1.5108017848   -0.3353496527
H        2.0161511639    0.3950079211    0.9235876014
H        1.7672976528   -1.5622491785   -0.8810720236
H       -0.9622767263   -1.9467674819   -0.8297389400
H       -2.1202792380    0.2834563453   -0.0932035597
H       -0.9992207276    2.2152957528   -1.0622225105
C       -0.3192855379    0.0315128175    1.3373560836
H       -0.4178930481   -0.8424680868    1.9718291433
13   
From optimize.out: Frame 2 / 10, Energy=    -286.8386978375
C        1.0415618434    0.2026704903    0.4063458220
C        0.9797395211   -0.9905993231   -0.4735279809
C       -0.3421086016   -1.1059571559   -0.6768749238
C       -1.0494573322    0.2998867738    0.1872857762
C       -0.4332332328    1.5064685167   -0.5034966048
N        0.8355476712    1.5337414211   -0.3391329398
H        2.0084842530    0.3710239349    0.8972278197
H        1.7919973260   -1.5730881251   -0.9025388343
H       -0.9045367256   -2.0473092597   -0.8239798464
H       -2.1235831168    0.3422971072   -0.0772745740
H       -1.0047579893    2.2608000864   -1.0453244162
C       -0.3456511887    0.0362207015    1.3602649983
H       -0.4540024278   -0.8361551681    1.9910257039
13   
From optimize.out: Frame 1 / 10, Energy=    -286.8274221311
C        1.0278320329    0.1978241652    0.3966054991
C        0.9831550294   -1.0096468534   -0.4946381148
C       -0.3353190858   -1.1664672234   -0.7116316321
C       -1.0511949583    0.3333791355    0.2142703402
C       -0.4369005795    1.5451353380   -0.4937335617
N        0.8267820593    1.5561102699   -0.3417477705
H        2.0019258017    0.3519219493    0.8774987640
H        1.8080539360   -1.5831771056   -0.9191513664
H       -0.8458491295   -2.1521831332   -0.8445292971
H       -2.1268947040    0.3959110639   -0.0546090969
H       -1.0081044029    2.3047063324   -1.0291766723
C       -0.3636340743    0.0476863872    1.3851487493
H       -0.4798519250   -0.8212003259    2.0156941592
13   
From optimize.out: Frame 5 / 47, Energy=    -286.8097415252
C        1.0147389609    0.1943003783    0.3889855517
C        0.9834689367   -1.0289842455   -0.5145293000
C       -0.3317019773   -1.2294174506   -0.7494449123
C       -1.0524928848    0.3658772708    0.2410114564
C       -0.4400878619    1.5832486117   -0.4838822248
N        0.8182102948    1.5782762635   -0.3439693462
H        1.9957309903    0.3345312637    0.8599255142
H        1.8211877490   -1.5929842104   -0.9341780745
H       -0.7870218498   -2.2581856053   -0.8735625792
H       -2.1300786260    0.4476201397   -0.0298870128
H       -1.0107011716    2.3479121606   -1.0133332545
C       -0.3788936465    0.0613004915    1.4106899683
H       -0.5023589137   -0.8034950680    2.0421742138
13   
From optimize.out: Frame 4 / 47, Energy=    -286.7824259233
C        0.9998745560    0.1904460922    0.3808429317
C        0.9831415064   -1.0499243272   -0.5368483456
C       -0.3288731642   -1.2911308185   -0.7860594955
C       -1.0504902227    0.3960419247    0.2667532262
C       -0.4429462121    1.6238175512   -0.4749433920
N        0.8092344089    1.6045938047   -0.3457961107
H        1.9876394903    0.3168309109    0.8410238470
H        1.8315340393   -1.6060025583   -0.9535181045
H       -0.7237441947   -2.3607110852   -0.8942996457
H       -2.1291767624    0.4966904081   -0.0095864027
H       -1.0138140896    2.3927937524   -0.9986124987
C       -0.3956954120    0.0735475665    1.4394199235
H       -0.5266839431   -0.7869932215    2.0716240670
13   
From optimize.out: Frame 3 / 47, Energy=    -286.7397663650
C        0.9840812551    0.1865367257    0.3725715645
C        0.9824439781   -1.0717135343   -0.5604924451
C       -0.3267594443   -1.3520952928   -0.8220087528
C       -1.0464580561    0.4248804710    0.2918189241
C       -0.4456483094    1.6658649190   -0.4665434200
N        0.7998277374    1.6333139597   -0.3471740757
H        1.9785068100    0.2991192333    0.8216127269
H        1.8403617555   -1.6208725483   -0.9752627970
H       -0.6585219174   -2.4616187494   -0.9105513314
H       -2.1257622936    0.5442364363    0.0079972308
H       -1.0171762428    2.4386557543   -0.9846937891
C       -0.4131456700    0.0849279515    1.4699589032
H       -0.5517496025   -0.7712353261    2.1027672616
13   
From optimize.out: Frame 2 / 47, Energy=    -286.6920728409
C        0.9661877966    0.1846498449    0.3667687301
C        0.9803778947   -1.0955188575   -0.5884084257
C       -0.3321510985   -1.4067034254   -0.8532191275
C       -1.0310552734    0.4467401295    0.3107476838
C       -0.4481591038    1.7147042603   -0.4613032272
N        0.7853967360    1.6727792754   -0.3425657592
H        1.9659455078    0.2843623173    0.8051009713
H        1.8434543776   -1.6438719548   -1.0066400586
H       -0.5972314772   -2.5574556436   -0.9077833578
H       -2.1079068429    0.5826073899    0.0085653905
H       -1.0210355735    2.4882425462   -0.9775193981
C       -0.4293540324    0.0903049335    1.5069390144
H       -0.5744689111   -0.7608408157    2.1393175641
13   
C5H5N+CH->C6H6N atoms 1-13 frame 149 charge +0.000 sz -1.000 sz^2 0.894
C        0.9361427889    0.1758260023    0.3908635355
C        0.9714322533   -1.1018524512   -0.6292281608
C       -0.3421550647   -1.4413689558   -0.8749246591
C       -1.0162237264    0.4633975479    0.3606127380
C       -0.4460577193    1.7300094879   -0.4558015366
N        0.8029764374    1.6983657568   -0.3639686628
H        1.9324841362    0.2771742215    0.8155266424
H        1.8462046836   -1.6198835470   -1.0521600891
H       -0.5801558549   -2.5970775569   -0.8996315664
H       -2.0659375302    0.6131608370   -0.0169916558
H       -1.0292377375    2.4743620555   -0.9959403383
C       -0.4064326715    0.0853099435    1.5454130580
H       -0.6030399949   -0.7574233415    2.1762306951
13   
C5H5N+CH->C6H6N atoms 1-13 frame 151 charge +0.000 sz -1.000 sz^2 0.915
C        0.9147500435    0.1641587781    0.4302438231
C        0.9568189407   -1.0892231570   -0.6619528833
C       -0.3464961640   -1.4530651925   -0.8806224636
C       -1.0178079570    0.4778162874    0.4155221260
C       -0.4402077688    1.7034982396   -0.4550310124
N        0.8478634254    1.6935728611   -0.4079704099
H        1.8999259591    0.2754285566    0.8524436846
H        1.8494029142   -1.5576021333   -1.0799145313
H       -0.6130528626   -2.5477188300   -0.9052374719
H       -2.0282498206    0.6060537822   -0.0336860342
H       -1.0388650406    2.4064993210   -1.0317436969
C       -0.3559066874    0.0791129733    1.5587987918
H       -0.6281749818   -0.7585314865    2.1991500780
13   
C5H5N+CH->C6H6N atoms 1-13 frame 152 charge +0.000 sz -1.000 sz^2 0.933
C        0.9286859009    0.1600636675    0.4328267731
C        0.9565941503   -1.0666041835   -0.6311702454
C       -0.3257708348   -1.4364541350   -0.8673909888
C       -1.0524538180    0.4843727755    0.4136674895
C       -0.4395906370    1.6559856177   -0.4483761717
N        0.8556213356    1.6319424119   -0.4181386683
H        1.9158779163    0.2776097197    0.8623899233
H        1.8608431193   -1.5163499477   -1.0366352762
H       -0.6490443363   -2.4910028019   -0.9409543409
H       -2.0743135971    0.5999435918    0.0000162777
H       -1.0311276820    2.3670362044   -1.0260485844
C       -0.3324007356    0.0853544576    1.5094619362
H       -0.6129207815   -0.7518973779    2.1503518759
13   
C5H5N+CH->C6H6N atoms 1-13 frame 153 charge -0.000 sz -1.000 sz^2 0.960
C        0.9476559075    0.1637703514    0.4293504960
C        0.9550434248   -1.0425503077   -0.5893967540
C       -0.3098006112   -1.4136714612   -0.8487683242
C       -1.0867317622    0.4832072633    0.3919187136
C       -0.4426036156    1.6106756064   -0.4442623585
N        0.8476825286    1.5649342960   -0.4069411854
H        1.9347275822    0.2879744006    0.8694956094
H        1.8658958485   -1.4877298841   -0.9837974942
H       -0.6850746897   -2.4390494638   -0.9704878819
H       -2.1244290260    0.5963171582    0.0325334059
H       -1.0144215307    2.3403313281   -1.0188605383
C       -0.3121633704    0.0882575925    1.4496809533
H       -0.5757806859   -0.7524668796    2.0895353583
13   
From optimize.out: Frame 1 / 42, Energy=    -286.6450782744
C        0.9668754881    0.1745303928    0.4337797033
C        0.9533512800   -1.0255195200   -0.5493178550
C       -0.2984013550   -1.3892133928   -0.8348468409
C       -1.1199724014    0.4784517617    0.3724699751
C       -0.4473438198    1.5671762199   -0.4461273322
N        0.8387499966    1.5021110360   -0.3955181547
H        1.9506926766    0.3074015553    0.8867937620
H        1.8685403860   -1.4696333479   -0.9352284090
H       -0.7272298641   -2.3780138491   -1.0134128866
H       -2.1707986663    0.5869066904    0.0709403163
H       -0.9953260233    2.3118073057   -1.0244761948
C       -0.2897770849    0.0890884451    1.3960224660
H       -0.5293606125   -0.7550932969    2.0389214505
13   
From optimize.out: Frame 2 / 42, Energy=    -286.6928686977
C        0.9877304928    0.1906931797    0.4449101931
C        0.9526436213   -1.0194861773   -0.5118481982
C       -0.2887551988   -1.3649089603   -0.8282594340
C       -1.1500869347    0.4717133475    0.3587908074
C       -0.4544144678    1.5282559390   -0.4547986957
N        0.8286563145    1.4518464180   -0.3912408509
H        1.9655686066    0.3301326239    0.9136614809
H        1.8703761672   -1.4662510102   -0.8893392741
H       -0.7690337532   -2.3078471662   -1.0775838785
H       -2.2123224010    0.5762130803    0.1227561369
H       -0.9804986839    2.2805232038   -1.0431581802
C       -0.2705878460    0.0869804912    1.3520614649
H       -0.4792759169   -0.7578649695    2.0040484285
13   
From optimize.out: Frame 4 / 42, Energy=    -286.7619897834
C        1.0075853967    0.2087078160    0.4564857236
C        0.9508046023   -1.0228950892   -0.4793116447
C       -0.2788683343   -1.3506669478   -0.8319909963
C       -1.1754266286    0.4691672771    0.3525430963
C       -0.4645433871    1.4983537567   -0.4678134013
N        0.8169514321    1.4195777336   -0.3976780387
H        1.9768438266    0.3438638031    0.9445757788
H        1.8721199271   -1.4747680729   -0.8423882554
H       -0.7919336310   -2.2430044786   -1.1682982389
H       -2.2473891329    0.5778839187    0.1991591204
H       -0.9749514700    2.2493227845   -1.0710919282
C       -0.2584732865    0.0812568850    1.3178875441
H       -0.4327193142   -0.7567993863    1.9879212404
13   
From optimize.out: Frame 5 / 42, Energy=    -286.7817982311
C        1.0090643252    0.2183670593    0.4626267116
C        0.9450221239   -1.0286530180   -0.4729936062
C       -0.2585798420   -1.3769445434   -0.8613862053
C       -1.1971058946    0.4936507777    0.3688499984
C       -0.4790065853    1.4873471128   -0.4734748063
N        0.8024429098    1.3962705020   -0.4114874926
H        1.9715304987    0.3167104228    0.9620490025
H        1.8782216775   -1.4719977419   -0.8129826449
H       -0.7521499658   -2.2429834542   -1.2694339825
H       -2.2702032517    0.6221397069    0.3019087852
H       -0.9774198862    2.2320243935   -1.0928335923
C       -0.2586138201    0.0883874714    1.3035775960
H       -0.4132022893   -0.7343186887    1.9955802365
13   
From optimize.out: Frame 7 / 42, Energy=    -286.8012710380
C        0.9956791277    0.2155332888    0.4681898567
C        0.9388273977   -1.0313082229   -0.4864080060
C       -0.2335756370   -1.4134723113   -0.9060093884
C       -1.2098651492    0.5289090700    0.4021613544
C       -0.4935544178    1.4850902881   -0.4715937163
N        0.7884345893    1.3732738136   -0.4278660855
H        1.9569773579    0.2634448504    0.9628339981
H        1.8863838603   -1.4537471937   -0.8081257187
H       -0.6862263697   -2.2785128455   -1.3451130718
H       -2.2761544959    0.6770805342    0.3803631346
H       -0.9850515659    2.2215188933   -1.1039096286
C       -0.2639118061    0.1101514385    1.3139373838
H       -0.4179628912   -0.6979616035    2.0215398876
13   
From optimize.out: Frame 14 / 42, Energy=    -286.8059409442
C        0.9822942042    0.2126852274    0.4737693270
C        0.9326268309   -1.0339529729   -0.4997839812
C       -0.2085806417   -1.4499015546   -0.9507113488
C       -1.2226201980    0.5640964426    0.4355356355
C       -0.5080858039    1.4828138410   -0.4697494771
N        0.7744378633    1.3502961998   -0.4443077446
H        1.9424422277    0.2101839672    0.9635318526
H        1.8945479146   -1.4355343120   -0.8031694466
H       -0.6203371794   -2.3138556928   -1.4208912634
H       -2.2820724024    0.7318520073    0.4588995450
H       -0.9926606198    2.2110170856   -1.1150744773
C       -0.2692345494    0.1319200993    1.3243485177
H       -0.4227576459   -0.6616203378    2.0476028612
13   
From optimize.out: Frame 15 / 42, Energy=    -286.8144371145
C        0.9689095339    0.2098231021    0.4793642405
C        0.9264207815   -1.0365876775   -0.5131229910
C       -0.1835937902   -1.4862348191   -0.9954891433
C       -1.2353718603    0.5992148416    0.4689707487
C       -0.5226012106    1.4805184382   -0.4679411139
N        0.7604528455    1.3273371558   -0.4608107776
H        1.9279248847    0.1569275406    0.9641446620
H        1.9027134694   -1.4173581395   -0.7981170581
H       -0.5544801295   -2.3490168699   -1.4967640179
H       -2.2879596251    0.7864590678    0.5375154117
H       -1.0002474542    2.2005191709   -1.1263252875
C       -0.2745814453    0.1536930464    1.3348094101
H       -0.4275859999   -0.6252948573    2.0737659163
13   
From optimize.out: Frame 17 / 42, Energy=    -286.8260688701
C        0.9555250941    0.2069471346    0.4849737605
C        0.9202095874   -1.0392127232   -0.5264264287
C       -0.1586140746   -1.5224745513   -1.0403399761
C       -1.2481209079    0.6342661365    0.5024647024
C       -0.5371010833    1.4782047189   -0.4661676922
N        0.7464796374    1.3043961987   -0.4773735667
H        1.9134250993    0.1036753433    0.9646744342
H        1.9108801745   -1.3992177570   -0.7929716324
H       -0.4886530639   -2.3840010608   -1.5727270314
H       -2.2938186749    0.8409064445    0.6162082634
H       -1.0078124567    2.1900253374   -1.1376593369
C       -0.2799519132    0.1754698973    1.3453185447
H       -0.4324474181   -0.5889851189    2.1000259591
13   
From optimize.out: Frame 18 / 42, Energy=    -286.8304797375
C        0.9421408598    0.2040575417    0.4905970925
C        0.9139935671   -1.0418284745   -0.5396956252
C       -0.1336405416   -1.5586231032   -1.0852611903
C       -1.2608680675    0.6692521231    0.5360156008
C       -0.5515858470    1.4758732965   -0.4644283152
N        0.7325183287    1.2814728669   -0.4939945642
H        1.8989426361    0.0504271537    0.9651230939
H        1.9190476992   -1.3811122819   -0.7877361068
H       -0.4228539304   -2.4188127697   -1.6487762218
H       -2.2996519290    0.8951986653    0.6949757533
H       -1.0153559973    2.1795357618   -1.1490740244
C       -0.2853453952    0.1972502922    1.3558744724
H       -0.4373413830   -0.5526910719    2.1263800349
13   
From optimize.out: Frame 19 / 42, Energy=    -286.8342659419
C        0.9285265706    0.2012039624    0.4957231709
C        0.9080081742   -1.0445820157   -0.5525835037
C       -0.1085196519   -1.5956267551   -1.1293423993
C       -1.2738214691    0.7046449141    0.5694135140
C       -0.5658870702    1.4742696209   -0.4627806539
N        0.7186413089    1.2593028302   -0.5105099990
H        1.8844670131   -0.0025825222    0.9648796786
H        1.9275523404   -1.3629107555   -0.7822952818
H       -0.3568584057   -2.4547032175   -1.7237876522
H       -2.3055944269    0.9500223194    0.7741844454
H       -1.0225713597    2.1702065241   -1.1603588336
C       -0.2912434546    0.2182150332    1.3656591136
H       -0.4426995693   -0.5174599382    2.1517984011
13   
From optimize.out: Frame 20 / 42, Energy=    -286.8376864094
C        0.9179914972    0.2017165970    0.4840936097
C        0.9114019865   -1.0499884077   -0.5490782202
C       -0.0945683945   -1.6345544168   -1.1235574240
C       -1.2842599642    0.7311818340    0.5781252291
C       -0.5674108463    1.4921127244   -0.4629690310
N        0.7146162790    1.2677623682   -0.5138926445
H        1.8776661707   -0.0163966165    0.9512143556
H        1.9388990577   -1.3536550113   -0.7772977933
H       -0.3243743023   -2.4990747715   -1.7270858211
H       -2.3111204264    0.9893193400    0.8153453883
H       -1.0181109764    2.1948893166   -1.1591169820
C       -0.3055963916    0.2059738406    1.3483514732
H       -0.4551336894   -0.5292867969    2.1358678603
13   
From optimize.out: Frame 21 / 42, Energy=    -286.8405931867
C        0.9154811294    0.2047048397    0.4531678236
C        0.9245645844   -1.0599313931   -0.5305507506
C       -0.0961818080   -1.6665645770   -1.0625602978
C       -1.2887910916    0.7434588986    0.5591510908
C       -0.5548522919    1.5255864601   -0.4618481420
N        0.7211865794    1.3005609879   -0.5053432248
H        1.8772119525    0.0270754479    0.9347381878
H        1.9483980123   -1.3630783900   -0.7775270678
H       -0.3338729835   -2.5384300274   -1.6530493917
H       -2.3129119074    1.0040298290    0.8040020736
H       -1.0031480047    2.2495289290   -1.1393159329
C       -0.3247976727    0.1603046614    1.3023288525
H       -0.4722864981   -0.5872456661    2.0768067793
13   
From optimize.out: Frame 24 / 42, Energy=    -286.8467970840
C        0.9086541154    0.1999270756    0.4164510873
C        0.9385261513   -1.0781917603   -0.5177504872
C       -0.0890638113   -1.7150472688   -1.0094484435
C       -1.2957672487    0.7736642117    0.5545522601
C       -0.5480692458    1.5593790155   -0.4563425161
N        0.7200737126    1.3159100527   -0.5085461729
H        1.8635917847    0.0750358792    0.9300240979
H        1.9594626392   -1.3772559168   -0.7825274232
H       -0.3148966412   -2.5873512078   -1.6047205643
H       -2.3112677722    1.0465383396    0.8188165114
H       -0.9929265541    2.3039697399   -1.1148417678
C       -0.3464907619    0.1172219889    1.2523700875
H       -0.4918263679   -0.6338001494    2.0219633307
13   
From optimize.out: Frame 25 / 42, Energy=    -286.8480844060
C        0.8942598331    0.1825437691    0.3830678900
C        0.9518725162   -1.0998695282   -0.5154746449
C       -0.0748733890   -1.7704635187   -0.9727114441
C       -1.3011461802    0.8119050598    0.5603900723
C       -0.5456588680    1.5908247325   -0.4481051372
N        0.7127646808    1.3162692981   -0.5187547615
H        1.8411672336    0.1216710126    0.9253574452
H        1.9717759218   -1.3883391382   -0.7961278509
H       -0.2739660221   -2.6481994113   -1.5709037714
H       -2.3040429936    1.1054274384    0.8483924889
H       -0.9830154349    2.3584559749   -1.0855941287
C       -0.3694232875    0.0842344813    1.2104313433
H       -0.5197140103   -0.6644601704    1.9800324990
13   
From optimize.out: Frame 26 / 42, Energy=    -286.8490122947
C        0.8743073401    0.1595028792    0.3554405603
C        0.9623464804   -1.1212241737   -0.5216192360
C       -0.0545691055   -1.8295574700   -0.9487928177
C       -1.3045477784    0.8528064519    0.5733211690
C       -0.5450661339    1.6191720655   -0.4376581383
N        0.7012871131    1.3059189535   -0.5343867799
H        1.8122989573    0.1581590347    0.9188288906
H        1.9831394416   -1.3912563935   -0.8169400812
H       -0.2198225357   -2.7146053232   -1.5478425719
H       -2.2929924588    1.1688232066    0.8858126309
H       -0.9708282987    2.4096138530   -1.0550231753
C       -0.3938742119    0.0633218675    1.1783783774
H       -0.5516788097   -0.6806749516    1.9504811720
13   
From optimize.out: Frame 27 / 42, Energy=    -286.8496752004
C        0.8518477861    0.1356200027    0.3309125355
C        0.9712362682   -1.1415248848   -0.5314913010
C       -0.0287629529   -1.8919074215   -0.9292110691
C       -1.3052900651    0.8956707376    0.5922833302
C       -0.5452870052    1.6451401326   -0.4270550618
N        0.6871184981    1.2904733061   -0.5546358520
H        1.7790440151    0.1824234302    0.9124421371
H        1.9936443586   -1.3850674576   -0.8436281828
H       -0.1596786514   -2.7806553347   -1.5326290703
H       -2.2781368081    1.2332110766    0.9301931293
H       -0.9580437471    2.4556455249   -1.0270037296
C       -0.4184238741    0.0487406245    1.1518886793
H       -0.5892678221   -0.6877697364    1.9279344554
13   
From optimize.out: Frame 28 / 42, Energy=    -286.8501000104
C        0.8253118425    0.1112891342    0.3084242451
C        0.9783140218   -1.1592506796   -0.5436136973
C        0.0004000865   -1.9541975524   -0.9088593018
C       -1.3045095297    0.9385172532    0.6119738376
C       -0.5434554559    1.6692023526   -0.4172134930
N        0.6728075452    1.2726957377   -0.5756405572
H        1.7397415531    0.1994091707    0.9077187893
H        2.0014264202   -1.3699840017   -0.8762782631
H       -0.0989992824   -2.8464037566   -1.5141718388
H       -2.2618596048    1.2946953293    0.9745186339
H       -0.9406607077    2.4986133073   -1.0015757709
C       -0.4461330580    0.0387517917    1.1279177115
H       -0.6223838309   -0.6933380864    1.9067997047
13   
From optimize.out: Frame 30 / 42, Energy=    -286.8504228657
C        0.7973499145    0.0892379088    0.2884730542
C        0.9834145792   -1.1752867368   -0.5545940835
C        0.0317560191   -2.0164857730   -0.8834633067
C       -1.3035647317    0.9786321873    0.6271176253
C       -0.5387900475    1.6949812101   -0.4069074436
N        0.6582277724    1.2545904619   -0.5977431560
H        1.6994866638    0.2109112321    0.9029737969
H        2.0043498440   -1.3463483580   -0.9146309842
H       -0.0404457347   -2.9141453053   -1.4851714581
H       -2.2469802329    1.3491289164    1.0116164088
H       -0.9175824578    2.5437493357   -0.9751509815
C       -0.4750910372    0.0317518373    1.1045087476
H       -0.6521305511   -0.7007169166    1.8829717810
13   
From optimize.out: Frame 31 / 42, Energy=    -286.8504722384
C        0.7715391191    0.0698265366    0.2693415206
C        0.9875996805   -1.1877904692   -0.5673906171
C        0.0656468022   -2.0758928615   -0.8525101586
C       -1.2996805942    1.0137240101    0.6392094084
C       -0.5316454491    1.7197142051   -0.3973897402
N        0.6457865468    1.2397841606   -0.6177008019
H        1.6621865020    0.2163666433    0.8974413011
H        2.0016510106   -1.3143815613   -0.9626232003
H        0.0146746221   -2.9829742442   -1.4423592211
H       -2.2314203622    1.3937350746    1.0426576531
H       -0.8911719939    2.5881493836   -0.9480218970
C       -0.5011567568    0.0257442943    1.0819072774
H       -0.6940091269   -0.7060051719    1.8574384755
13   
From optimize.out: Frame 33 / 42, Energy=    -286.8505294565
C        0.7469069340    0.0532373376    0.2511978525
C        0.9900831533   -1.1970455437   -0.5810720493
C        0.1025114241   -2.1326168105   -0.8151235073
C       -1.2945268801    1.0458636690    0.6490625840
C       -0.5217337768    1.7424950921   -0.3889303931
N        0.6363910160    1.2279318677   -0.6343237061
H        1.6250656099    0.2146402151    0.8954256487
H        1.9903608912   -1.2745004822   -1.0204616715
H        0.0684635065   -3.0495875696   -1.3906871331
H       -2.2176132782    1.4302987082    1.0681505154
H       -0.8625582744    2.6276967698   -0.9245243093
C       -0.5262252709    0.0216319574    1.0601589420
H       -0.7371250546   -0.7100452109    1.8311272270
13   
From optimize.out: Frame 35 / 42, Energy=    -286.8505674719
C        0.7242123562    0.0400508870    0.2344424856
C        0.9898380121   -1.2033890772   -0.5947611176
C        0.1403822102   -2.1848010445   -0.7721977872
C       -1.2900187431    1.0735878338    0.6541393533
C       -0.5096430739    1.7642923611   -0.3816207263
N        0.6305230169    1.2203145834   -0.6468754885
H        1.5908109341    0.2095535592    0.8942884471
H        1.9693129377   -1.2312766707   -1.0837719745
H        0.1219519370   -3.1147949131   -1.3266950865
H       -2.2087314357    1.4577487294    1.0832094971
H       -0.8310429761    2.6659495761   -0.9013612769
C       -0.5500138486    0.0190455205    1.0393149256
H       -0.7775813268   -0.7162813451    1.8018887486
13   
From optimize.out: Frame 37 / 42, Energy=    -286.8505712777
C        0.7041685422    0.0305915978    0.2190454595
C        0.9866613584   -1.2070988100   -0.6089787985
C        0.1810252388   -2.2330710912   -0.7243439995
C       -1.2862223357    1.0978190108    0.6566366588
C       -0.4959917277    1.7852177728   -0.3741367594
N        0.6277157497    1.2163251929   -0.6558404219
H        1.5602076433    0.2001136298    0.8943897324
H        1.9376755851   -1.1871165717   -1.1513181050
H        0.1772669258   -3.1765597744   -1.2555683558
H       -2.2048420623    1.4780108810    1.0894774255
H       -0.7999038641    2.7007006893   -0.8802564453
C       -0.5716917159    0.0182144623    1.0198040097
H       -0.8160693375   -0.7231469895    1.7710895995
13   
From optimize.out: Frame 40 / 42, Energy=    -286.8505846892
C        0.6878352429    0.0239880538    0.2064312460
C        0.9815196941   -1.2103420429   -0.6209881315
C        0.2235547146   -2.2770379756   -0.6719850499
C       -1.2837350495    1.1174805163    0.6555222108
C       -0.4827107306    1.8039373416   -0.3677268422
N        0.6280243460    1.2164234881   -0.6597949516
H        1.5357711390    0.1905545251    0.8941945953
H        1.8929588001   -1.1446728510   -1.2237867551
H        0.2351429882   -3.2333836596   -1.1791786404
H       -2.2068676600    1.4924152583    1.0833190990
H       -0.7699007438    2.7324592486   -0.8596875481
C       -0.5904185407    0.0189083970    1.0032272388
H       -0.8511742001   -0.7307302996    1.7404535289
13   
From optimize.out: Frame 41 / 42, Energy=    -286.8505851766
C        0.6735260789    0.0211208328    0.1935585247
C        0.9695156315   -1.2100436377   -0.6372492585
C        0.2688763747   -2.3167981700   -0.6187332168
C       -1.2827169644    1.1352425801    0.6552400060
C       -0.4698766300    1.8224155018   -0.3600567852
N        0.6300586321    1.2202986102   -0.6614352951
H        1.5160458356    0.1755061610    0.8918647961
H        1.8422210389   -1.1081193800   -1.2914762968
H        0.3006918222   -3.2863947663   -1.0986996079
H       -2.2140931975    1.5032679157    1.0708925614
H       -0.7429110157    2.7618223726   -0.8396035311
C       -0.6068879004    0.0207973507    0.9877672902
H       -0.8844497059   -0.7391153711    1.7079308130
13   
From optimize.out: Frame 1 / 2, Energy=    -286.8505842057
C        0.6843389613    0.0293099198    0.2057355597
C        0.9577015427   -1.2053763598   -0.6336184148
C        0.2672236888   -2.3203309441   -0.5981032017
C       -1.2805835461    1.1350776500    0.6521951612
C       -0.4660080052    1.8251478150   -0.3588038192
N        0.6433591368    1.2321125604   -0.6454878624
H        1.5406416225    0.1681277514    0.8891761618
H        1.8139455943   -1.1001931943   -1.3101252700
H        0.2981061983   -3.2848608372   -1.0891007117
H       -2.2420476372    1.4680393602    1.0266837152
H       -0.7421752164    2.7599374119   -0.8454141994
C       -0.5970982328    0.0287840388    0.9962206077
H       -0.8774041068   -0.7357751721    1.7106422736
