13   
From optimize.out: Frame 6 / 47, Energy=    -286.8274221311
C        1.0794514127    0.2310538929    0.4633299753
C        0.9289042621   -0.9674814235   -0.4057512860
C       -0.3899805699   -1.0340040545   -0.6664680716
C       -1.0639505014    0.2250613326    0.1294938497
C       -0.4291479966    1.4215180609   -0.5226731690
N        0.8464027053    1.4742767714   -0.3321849531
H        2.0277345769    0.4263136630    0.9769710731
H        1.7287085651   -1.5582246586   -0.8258977503
H       -1.0075493272   -1.8618957285   -0.9681904808
H       -2.1448701339    0.2210717848   -0.0510420056
H       -0.9888294263    2.1714836306   -1.0806540838
C       -0.2520621434    0.0573567834    1.3128449508
H       -0.3348114239   -0.8065300546    1.9702219512
13   
From optimize.out: Frame 5 / 47, Energy=    -286.8097415252
C        1.0681527976    0.2189148571    0.4367046800
C        0.9561233368   -0.9598113256   -0.4308643660
C       -0.3711918005   -1.0194816499   -0.6386273513
C       -1.0451686262    0.2372676097    0.1399134788
C       -0.4251598006    1.4386610595   -0.5181399924
N        0.8503521607    1.4954058336   -0.3303492767
H        2.0209623449    0.4131318509    0.9456058272
H        1.7492801189   -1.5527467289   -0.8649924289
H       -1.0000701130   -1.8783649817   -0.8453343423
H       -2.1186009142    0.2402997543   -0.1024796042
H       -0.9953889365    2.1840236431   -1.0724012994
C       -0.2990572727    0.0289147035    1.3218393443
H       -0.3902332951   -0.8462146256    1.9591253310
13   
From optimize.out: Frame 4 / 47, Energy=    -286.7824259233
C        1.0518912441    0.2089610120    0.4186942720
C        0.9727109814   -0.9770630015   -0.4548635629
C       -0.3513552712   -1.0672773645   -0.6579888863
C       -1.0477882911    0.2736801680    0.1659662624
C       -0.4296519528    1.4776612130   -0.5108799996
N        0.8420035702    1.5177559735   -0.3352577131
H        2.0124046766    0.3885656712    0.9182236844
H        1.7771036035   -1.5645075350   -0.8853696774
H       -0.9443040540   -1.9747040005   -0.8259103780
H       -2.1209894951    0.2995641608   -0.0928631421
H       -1.0004798489    2.2278007997   -1.0587269011
C       -0.3297280634    0.0317235683    1.3431123195
H       -0.4318170992   -0.8421606652    1.9758637222
13   
From optimize.out: Frame 3 / 47, Energy=    -286.7397663650
C        1.0363104179    0.2010337002    0.4041352972
C        0.9841784981   -0.9960657516   -0.4770799510
C       -0.3361934095   -1.1220261771   -0.6840085162
C       -1.0507421942    0.3099938748    0.1924372557
C       -0.4338249165    1.5170748649   -0.5034372045
N        0.8333628960    1.5399690533   -0.3400346333
H        2.0043359496    0.3658653639    0.8940998116
H        1.8009230001   -1.5767636751   -0.9026359173
H       -0.8858788927   -2.0770720617   -0.8234331415
H       -2.1245134308    0.3581961575   -0.0773791374
H       -1.0044193381    2.2722485059   -1.0452915994
C       -0.3556625170    0.0393426127    1.3660015665
H       -0.4678760629   -0.8317964675    1.9966261697
13   
From optimize.out: Frame 2 / 47, Energy=    -286.6920728409
C        1.0228785755    0.1976841447    0.3968477561
C        0.9846284566   -1.0165525222   -0.4951823829
C       -0.3322444851   -1.1865991723   -0.7207737391
C       -1.0521934046    0.3434755214    0.2182239016
C       -0.4363299934    1.5551251485   -0.4958529119
N        0.8253482136    1.5617256473   -0.3437756123
H        1.9976198444    0.3488173147    0.8772856740
H        1.8144561192   -1.5883463300   -0.9145230993
H       -0.8263205629   -2.1851867479   -0.8500995373
H       -2.1276584190    0.4110305308   -0.0545130877
H       -1.0057822261    2.3149367702   -1.0330057962
C       -0.3721016131    0.0550307415    1.3914113408
H       -0.4923005051   -0.8111410466    2.0239574941
13   
C5H5N+CH->C6H6N atoms 1-13 frame 149 charge +0.000 sz -1.000 sz^2 0.894
C        1.0094467330    0.1943345891    0.3895602151
C        0.9850784151   -1.0370392928   -0.5132848148
C       -0.3282955607   -1.2511721674   -0.7575389619
C       -1.0536446149    0.3769571680    0.2440105476
C       -0.4388350703    1.5931754321   -0.4882686192
N        0.8173335312    1.5834822413   -0.3475165914
H        1.9909037392    0.3317692656    0.8604715365
H        1.8279892383   -1.5999289849   -0.9264102812
H       -0.7667622331   -2.2933014340   -0.8767659331
H       -2.1308034073    0.4638649040   -0.0316470380
H       -1.0071451140    2.3576250345   -1.0207199931
C       -0.3885407092    0.0707188704    1.4168211151
H       -0.5167249473   -0.7904856258    2.0512888185
13   
C5H5N+CH->C6H6N atoms 1-13 frame 150 charge -0.000 sz -1.000 sz^2 0.901
C        0.9933996147    0.1904042969    0.3816953722
C        0.9847520036   -1.0597229975   -0.5350274994
C       -0.3253072688   -1.3138289023   -0.7928030296
C       -1.0503831636    0.4070060285    0.2682401047
C       -0.4408409537    1.6349471186   -0.4817061696
N        0.8087414822    1.6114031710   -0.3501802318
H        1.9813328129    0.3140189864    0.8421543228
H        1.8377171928   -1.6158790886   -0.9447416911
H       -0.7006058936   -2.3961874645   -0.8917542666
H       -2.1280201790    0.5128355282   -0.0154880129
H       -1.0091974661    2.4030667600   -1.0096113933
C       -0.4074830203    0.0840685706    1.4467396216
H       -0.5441051609   -0.7721320073    2.0824828731
13   
C5H5N+CH->C6H6N atoms 1-13 frame 151 charge +0.000 sz -1.000 sz^2 0.915
C        0.9771695412    0.1865958196    0.3739911116
C        0.9843300505   -1.0825623945   -0.5571387188
C       -0.3228320616   -1.3760133532   -0.8277638965
C       -1.0462866274    0.4365230348    0.2920494084
C       -0.4428300635    1.6772454605   -0.4753347251
N        0.7997952531    1.6401570854   -0.3523899571
H        1.9714859176    0.2964413973    0.8240177041
H        1.8470150955   -1.6324169007   -0.9638567472
H       -0.6346098008   -2.4986347039   -0.9053409944
H       -2.1241711570    0.5611197993   -0.0005578873
H       -1.0112983668    2.4488250768   -0.9989174275
C       -0.4263887478    0.0969448993    1.4771631743
H       -0.5713790331   -0.7542252209    2.1140789555
13   
C5H5N+CH->C6H6N atoms 1-13 frame 152 charge +0.000 sz -1.000 sz^2 0.933
C        0.9578371589    0.1856182203    0.3699566057
C        0.9820937873   -1.1080512474   -0.5860355571
C       -0.3311577253   -1.4285959560   -0.8566497844
C       -1.0256487437    0.4556472493    0.3072658806
C       -0.4446202482    1.7297288227   -0.4727651858
N        0.7833649628    1.6849283914   -0.3451193517
H        1.9566002469    0.2828370897    0.8102895959
H        1.8482487874   -1.6602496966   -0.9978278830
H       -0.5742605183   -2.5932975280   -0.8924067269
H       -2.0991824316    0.5958056485   -0.0100449443
H       -1.0142239796    2.5005357767   -0.9968197343
C       -0.4436767646    0.1003349554    1.5170440297
H       -0.5953745319   -0.7452417262    2.1531130558
13   
C5H5N+CH->C6H6N atoms 1-13 frame 153 charge -0.000 sz -1.000 sz^2 0.960
C        0.9313003631    0.1764505383    0.3983403431
C        0.9735020072   -1.1061605309   -0.6200281679
C       -0.3387436563   -1.4480843409   -0.8698152435
C       -1.0172077913    0.4675058289    0.3563547852
C       -0.4414192127    1.7274533199   -0.4682599384
N        0.8091849501    1.6966601002   -0.3715251732
H        1.9245595588    0.2800794021    0.8274575949
H        1.8515656823   -1.6240840478   -1.0347914542
H       -0.5771407496   -2.6027476163   -0.8874518738
H       -2.0616246227    0.6168091268   -0.0358371186
H       -1.0216333765    2.4659838860   -1.0189226365
C       -0.4129049818    0.0941303740    1.5450575996
H       -0.6194381706   -0.7439960405    2.1794212832
13   
From optimize.out: Frame 1 / 42, Energy=    -286.6450782744
C        0.9106988114    0.1650649493    0.4378054847
C        0.9588231122   -1.0924921507   -0.6526907705
C       -0.3425860271   -1.4585490005   -0.8749217586
C       -1.0201460611    0.4819358224    0.4110337458
C       -0.4358673034    1.6990146011   -0.4670639767
N        0.8550180876    1.6901932976   -0.4158296835
H        1.8925443409    0.2788190640    0.8650770726
H        1.8549414611   -1.5598822357   -1.0623194594
H       -0.6121848386   -2.5480929149   -0.8952006370
H       -2.0247241528    0.6064125771   -0.0502371363
H       -1.0318162479    2.3959537567   -1.0540631616
C       -0.3610750780    0.0875649870    1.5571259204
H       -0.6436261043   -0.7459427534    2.2012843601
13   
From optimize.out: Frame 2 / 42, Energy=    -286.6928686977
C        0.9254368129    0.1618537874    0.4370043989
C        0.9592687091   -1.0724177072   -0.6219003839
C       -0.3230697993   -1.4427037396   -0.8614536563
C       -1.0524085672    0.4876519308    0.4063289896
C       -0.4358353791    1.6560451590   -0.4609690855
N        0.8594554501    1.6324899023   -0.4240609974
H        1.9104123013    0.2809496745    0.8705316878
H        1.8649732806   -1.5254948689   -1.0204301130
H       -0.6438638888   -2.4990281489   -0.9277104906
H       -2.0710711666    0.6015351084   -0.0164308560
H       -1.0248474815    2.3629633260   -1.0462601891
C       -0.3415015656    0.0945654368    1.5104279767
H       -0.6269487059   -0.7384098605    2.1549227189
13   
From optimize.out: Frame 3 / 42, Energy=    -286.7324012834
C        0.9449261448    0.1653250275    0.4323889904
C        0.9569192856   -1.0480465823   -0.5800067345
C       -0.3076715619   -1.4201489118   -0.8414781459
C       -1.0865308751    0.4869109963    0.3846764945
C       -0.4389699595    1.6101217558   -0.4568507390
N        0.8512954730    1.5644792868   -0.4139614011
H        1.9302349294    0.2912051228    0.8756141367
H        1.8689752552   -1.4966363788   -0.9676902466
H       -0.6807580682   -2.4476857728   -0.9554633894
H       -2.1218466271    0.5987018385    0.0171074954
H       -1.0086582772    2.3357203665   -1.0387004344
C       -0.3197715027    0.0980716926    1.4501593227
H       -0.5881442164   -0.7380184411    2.0942046512
13   
From optimize.out: Frame 4 / 42, Energy=    -286.7619897834
C        0.9646524168    0.1760431335    0.4357066205
C        0.9543913314   -1.0305339133   -0.5399484539
C       -0.2970486114   -1.3956997267   -0.8263914047
C       -1.1197338038    0.4824066178    0.3654562122
C       -0.4438714974    1.5658968950   -0.4585039164
N        0.8420783197    1.5003808198   -0.4031628711
H        1.9471405187    0.3108924463    0.8908350883
H        1.8704685546   -1.4781466916   -0.9196336857
H       -0.7242535174   -2.3870199919   -0.9969159841
H       -2.1688889575    0.5898873922    0.0568326418
H       -0.9898007786    2.3066679631   -1.0437442573
C       -0.2955897234    0.0992950293    1.3959340153
H       -0.5395442516   -0.7400699735    2.0435359951
13   
From optimize.out: Frame 5 / 42, Energy=    -286.7817982311
C        0.9861049265    0.1923756269    0.4459367694
C        0.9530029502   -1.0241740098   -0.5025929993
C       -0.2882089631   -1.3711081924   -0.8189025374
C       -1.1498419805    0.4756874682    0.3522667776
C       -0.4511656981    1.5262272760   -0.4669514052
N        0.8316837477    1.4489579439   -0.3994230439
H        1.9630249135    0.3342971526    0.9158394773
H        1.8712044495   -1.4745475240   -0.8746023309
H       -0.7678490521   -2.3167877212   -1.0601135860
H       -2.2110033280    0.5794706277    0.1101286291
H       -0.9752192996    2.2747420682   -1.0618924346
C       -0.2746447086    0.0974189306    1.3516074353
H       -0.4870879572   -0.7425596467    2.0086992484
13   
From optimize.out: Frame 7 / 42, Energy=    -286.8012710380
C        1.0067799791    0.2106354065    0.4567126804
C        0.9506932075   -1.0275763962   -0.4696697181
C       -0.2794958366   -1.3559599272   -0.8211164320
C       -1.1747972368    0.4726046567    0.3460124941
C       -0.4612343850    1.4956378774   -0.4802258289
N        0.8200192186    1.4161908051   -0.4066296596
H        1.9754610475    0.3495360380    0.9452586556
H        1.8718079160   -1.4836276875   -0.8280959099
H       -0.7935198162   -2.2512427843   -1.1489168614
H       -2.2462210617    0.5807686267    0.1865178169
H       -0.9698890142    2.2427041078   -1.0898536618
C       -0.2610946639    0.0917131459    1.3172829453
H       -0.4385093544   -0.7413838690    1.9927234795
13   
From optimize.out: Frame 14 / 42, Energy=    -286.8059409442
C        1.0103734280    0.2213165550    0.4618768113
C        0.9452166797   -1.0338846088   -0.4600690480
C       -0.2625404803   -1.3789717389   -0.8433959066
C       -1.1952670869    0.4937577810    0.3574492039
C       -0.4737244610    1.4841164843   -0.4879039554
N        0.8073817359    1.3945635294   -0.4200408361
H        1.9721834362    0.3297101026    0.9629103243
H        1.8763776554   -1.4846254613   -0.7967953278
H       -0.7624053844   -2.2479420641   -1.2403447393
H       -2.2689772110    0.6204729546    0.2809343601
H       -0.9707377299    2.2251891838   -1.1130446989
C       -0.2602918148    0.0973194166    1.3008013626
H       -0.4175887670   -0.7210221341    1.9976224498
13   
From optimize.out: Frame 15 / 42, Energy=    -286.8144371145
C        0.9966760854    0.2187935793    0.4676917939
C        0.9388856436   -1.0375348634   -0.4719330936
C       -0.2372446696   -1.4173554415   -0.8865080526
C       -1.2081986436    0.5305630090    0.3895724481
C       -0.4877735030    1.4814327777   -0.4880271937
N        0.7938262499    1.3704213680   -0.4377059946
H        1.9570213896    0.2764776288    0.9647335631
H        1.8845742528   -1.4676616211   -0.7893995624
H       -0.6957385626   -2.2860528040   -1.3139342756
H       -2.2750303974    0.6778646788    0.3578557463
H       -0.9772697536    2.2134087456   -1.1272846635
C       -0.2661994644    0.1210895871    1.3107923740
H       -0.4235286273   -0.6814466443    2.0241469107
13   
From optimize.out: Frame 16 / 42, Energy=    -286.8208922559
C        0.9829787427    0.2162706036    0.4735067764
C        0.9325546075   -1.0411851179   -0.4837971393
C       -0.2119488588   -1.4557391440   -0.9296201986
C       -1.2211302002    0.5673682369    0.4216956923
C       -0.5018225450    1.4787490711   -0.4881504320
N        0.7802707640    1.3462792066   -0.4553711530
H        1.9418593431    0.2232451550    0.9665568019
H        1.8927708501   -1.4506977809   -0.7820037971
H       -0.6290717408   -2.3241635439   -1.3875238118
H       -2.2810835837    0.7352564029    0.4347771325
H       -0.9838017774    2.2016283075   -1.1415246281
C       -0.2721071140    0.1448597576    1.3207833853
H       -0.4294684875   -0.6418711545    2.0506713715
13   
From optimize.out: Frame 17 / 42, Energy=    -286.8260688701
C        0.9692814000    0.2137476279    0.4793217590
C        0.9262235715   -1.0448353725   -0.4956611849
C       -0.1866530481   -1.4941228465   -0.9727323446
C       -1.2340617569    0.6041734649    0.4538189365
C       -0.5158715870    1.4760653645   -0.4882736704
N        0.7667152781    1.3221370452   -0.4730363115
H        1.9266972965    0.1700126813    0.9683800407
H        1.9009674475   -1.4337339407   -0.7746080317
H       -0.5624049190   -2.3622742837   -1.4611133481
H       -2.2871367701    0.7926481270    0.5116985188
H       -0.9903338011    2.1898478694   -1.1557645927
C       -0.2780147636    0.1686299281    1.3307743967
H       -0.4354083478   -0.6022956647    2.0771958323
13   
From optimize.out: Frame 18 / 42, Energy=    -286.8304797375
C        0.9555840573    0.2112246522    0.4851367416
C        0.9198925354   -1.0484856271   -0.5075252306
C       -0.1613572373   -1.5325065491   -1.0158444906
C       -1.2469933136    0.6409786928    0.4859421807
C       -0.5299206290    1.4733816579   -0.4883969087
N        0.7531597922    1.2979948838   -0.4907014699
H        1.9115352499    0.1167802075    0.9702032794
H        1.9091640449   -1.4167701006   -0.7672122664
H       -0.4957380971   -2.4003850236   -1.5347028844
H       -2.2931899564    0.8500398512    0.5886199050
H       -0.9968658249    2.1780674313   -1.1700045573
C       -0.2839224132    0.1924000986    1.3407654080
H       -0.4413482080   -0.5627201749    2.1037202931
13   
From optimize.out: Frame 19 / 42, Energy=    -286.8342659419
C        0.9418867147    0.2087016764    0.4909517241
C        0.9135614993   -1.0521358816   -0.5193892762
C       -0.1360614266   -1.5708902516   -1.0589566365
C       -1.2599248702    0.6777839208    0.5180654249
C       -0.5439696711    1.4706979514   -0.4885201470
N        0.7396043062    1.2738527224   -0.5083666283
H        1.8963732033    0.0635477337    0.9720265182
H        1.9173606422   -1.3998062604   -0.7598165011
H       -0.4290712753   -2.4384957635   -1.6082924206
H       -2.2992431427    0.9074315753    0.6655412912
H       -1.0033978486    2.1662869932   -1.1842445220
C       -0.2898300629    0.2161702690    1.3507564194
H       -0.4472880683   -0.5231446851    2.1302447539
13   
From optimize.out: Frame 20 / 42, Energy=    -286.8376864094
C        0.9281893720    0.2061787007    0.4967667067
C        0.9072304632   -1.0557861362   -0.5312533219
C       -0.1107656159   -1.6092739542   -1.1020687825
C       -1.2728564269    0.7145891488    0.5501886691
C       -0.5580187131    1.4680142448   -0.4886433853
N        0.7260488203    1.2497105610   -0.5260317868
H        1.8812111567    0.0103152599    0.9738497570
H        1.9255572396   -1.3828424202   -0.7524207357
H       -0.3624044535   -2.4766065034   -1.6818819569
H       -2.3052963291    0.9648232994    0.7424626774
H       -1.0099298724    2.1545065551   -1.1984844866
C       -0.2957377125    0.2399404395    1.3607474307
H       -0.4532279286   -0.4835691953    2.1567692148
13   
From optimize.out: Frame 21 / 42, Energy=    -286.8405931867
C        0.9170744689    0.2049312686    0.4959945018
C        0.9051268310   -1.0595439904   -0.5358174768
C       -0.0927239539   -1.6431564808   -1.1221254346
C       -1.2832551115    0.7432265403    0.5694224592
C       -0.5657605936    1.4728655849   -0.4895273719
N        0.7177544911    1.2403010259   -0.5365181682
H        1.8711124620   -0.0228122534    0.9695151678
H        1.9340006494   -1.3705388319   -0.7462958593
H       -0.3163722075   -2.5130583862   -1.7200642722
H       -2.3104845564    1.0091017630    0.7964789764
H       -1.0114418271    2.1569901200   -1.2064577888
C       -0.3039797190    0.2483674886    1.3600978992
H       -0.4610509334   -0.4666738485    2.1652973675
13   
From optimize.out: Frame 23 / 42, Energy=    -286.8451372677
C        0.9154831212    0.2091154673    0.4691288404
C        0.9177446696   -1.0657481150   -0.5148067811
C       -0.0983008625   -1.6665309106   -1.0598347341
C       -1.2860280201    0.7477395596    0.5459545966
C       -0.5518692152    1.5051601950   -0.4917456707
N        0.7266411985    1.2800306759   -0.5244549351
H        1.8760824066    0.0160132380    0.9467603946
H        1.9432342996   -1.3765508163   -0.7443336424
H       -0.3374324710   -2.5456555809   -1.6386811469
H       -2.3128217804    1.0127999136    0.7754250190
H       -0.9959197134    2.2099498908   -1.1914659292
C       -0.3214802620    0.2022533790    1.3190575026
H       -0.4753333709   -0.5285768963    2.1089964865
13   
From optimize.out: Frame 24 / 42, Energy=    -286.8467970840
C        0.9121815259    0.2095407622    0.4327692491
C        0.9311181791   -1.0802311780   -0.4992466261
C       -0.0952259650   -1.7080784034   -0.9998550559
C       -1.2926026363    0.7700341267    0.5330560982
C       -0.5415636064    1.5390495819   -0.4879284735
N        0.7296584174    1.3023793761   -0.5232117464
H        1.8687667419    0.0651546119    0.9373220148
H        1.9528472384   -1.3907696477   -0.7467745947
H       -0.3315757926   -2.5915249696   -1.5737101521
H       -2.3135365605    1.0423023798    0.7773103012
H       -0.9824786435    2.2654465119   -1.1684964667
C       -0.3422125287    0.1573476916    1.2687218369
H       -0.4953763697   -0.5806508433    2.0500436151
13   
From optimize.out: Frame 25 / 42, Energy=    -286.8480844060
C        0.9017707827    0.1979119745    0.3986751009
C        0.9444158393   -1.1020560007   -0.4884896372
C       -0.0843930820   -1.7606942750   -0.9555597047
C       -1.2992767491    0.8083142954    0.5368268708
C       -0.5395594326    1.5692428829   -0.4843137047
N        0.7236312510    1.3066646707   -0.5341841511
H        1.8486496159    0.1088128624    0.9371559403
H        1.9648244194   -1.4050559437   -0.7516429962
H       -0.2983258880   -2.6407705435   -1.5447147339
H       -2.3089741180    1.0993011512    0.8037661164
H       -0.9769070244    2.3129742657   -1.1496477536
C       -0.3632215136    0.1204438099    1.2246654461
H       -0.5126341006   -0.6150891499    2.0074632070
13   
From optimize.out: Frame 26 / 42, Energy=    -286.8490122947
C        0.8847970136    0.1760912641    0.3704153280
C        0.9564489402   -1.1219777888   -0.4920652228
C       -0.0684239788   -1.8132689385   -0.9258311959
C       -1.3028132374    0.8433482520    0.5407041847
C       -0.5366331382    1.5979091025   -0.4762061135
N        0.7161636278    1.3016739917   -0.5443517778
H        1.8261591784    0.1549306648    0.9272923564
H        1.9766072414   -1.4133501946   -0.7688834256
H       -0.2537656872   -2.7086279160   -1.5027921910
H       -2.3001259860    1.1558641164    0.8281680439
H       -0.9629053938    2.3676112755   -1.1190912377
C       -0.3860969622    0.0960236264    1.1901670942
H       -0.5494116177   -0.6362274555    1.9724741572
13   
From optimize.out: Frame 27 / 42, Energy=    -286.8496752004
C        0.8629443028    0.1529052571    0.3457540071
C        0.9654281592   -1.1446545857   -0.4966148365
C       -0.0449645922   -1.8761821242   -0.9029221709
C       -1.3063017086    0.8888431345    0.5570333503
C       -0.5377247268    1.6241308413   -0.4683557449
N        0.7021700285    1.2856732149   -0.5654375182
H        1.7924938655    0.1827103883    0.9237999233
H        1.9879510094   -1.4133734268   -0.7875580408
H       -0.1929205879   -2.7726623397   -1.4903600653
H       -2.2883694337    1.2248467520    0.8692930320
H       -0.9520237090    2.4122447982   -1.0965135726
C       -0.4116291008    0.0802858808    1.1618291029
H       -0.5770535063   -0.6447677907    1.9500525336
13   
From optimize.out: Frame 28 / 42, Energy=    -286.8501000104
C        0.8404031214    0.1291012787    0.3232926702
C        0.9745761887   -1.1635509805   -0.5068310033
C       -0.0174863836   -1.9371782523   -0.8810435409
C       -1.3053655521    0.9297561960    0.5732475831
C       -0.5368822233    1.6486454120   -0.4600224950
N        0.6888250007    1.2696254362   -0.5854590669
H        1.7598340219    0.2050789664    0.9155224610
H        1.9987027438   -1.4044413125   -0.8157377171
H       -0.1339182693   -2.8406996579   -1.4658815138
H       -2.2724866898    1.2862722108    0.9085214746
H       -0.9372337458    2.4570130774   -1.0714146758
C       -0.4356332016    0.0682050463    1.1373613859
H       -0.6233350110   -0.6478274207    1.9284444379
13   
From optimize.out: Frame 29 / 42, Energy=    -286.8503339635
C        0.8113332375    0.1049783016    0.3027341309
C        0.9805180854   -1.1810631596   -0.5164772875
C        0.0126067151   -1.9994210074   -0.8568874782
C       -1.3053703724    0.9743330002    0.5906179498
C       -0.5339284491    1.6712479229   -0.4533082753
N        0.6748646055    1.2495033417   -0.6073414644
H        1.7157493687    0.2190495226    0.9141816838
H        2.0054062232   -1.3874678658   -0.8469721287
H       -0.0725380213   -2.9047301092   -1.4452487192
H       -2.2575689701    1.3487690779    0.9489422981
H       -0.9174077030    2.4964314249   -1.0526699044
C       -0.4663933400    0.0611360389    1.1139491353
H       -0.6472713796   -0.6527664887    1.9084800597
13   
From optimize.out: Frame 30 / 42, Energy=    -286.8504228657
C        0.7845610296    0.0847876858    0.2849994011
C        0.9855932346   -1.1967610306   -0.5247251812
C        0.0445778824   -2.0606596146   -0.8258158032
C       -1.3044569295    1.0116048160    0.5994570163
C       -0.5276270231    1.6984209721   -0.4444688316
N        0.6610345487    1.2317356862   -0.6294710351
H        1.6781953865    0.2298364060    0.9079779052
H        2.0072015781   -1.3621281555   -0.8860693318
H       -0.0162821549   -2.9747266922   -1.4038928571
H       -2.2443744724    1.3986232338    0.9764176637
H       -0.8914051020    2.5440005785   -1.0272312075
C       -0.4944890873    0.0551411862    1.0903633035
H       -0.6825288907   -0.6598750717    1.8824589577
13   
From optimize.out: Frame 31 / 42, Energy=    -286.8504722384
C        0.7591805053    0.0658129854    0.2663738401
C        0.9901944697   -1.2080025940   -0.5372909965
C        0.0805037041   -2.1186289121   -0.7898344185
C       -1.2995061132    1.0460601363    0.6094267207
C       -0.5195013464    1.7211369589   -0.4380902180
N        0.6504895735    1.2176843572   -0.6479628603
H        1.6398844104    0.2328778130    0.9043917270
H        2.0036955328   -1.3281895573   -0.9368752826
H        0.0394816999   -3.0429005239   -1.3533691989
H       -2.2289879497    1.4414060677    1.0034919978
H       -0.8637497865    2.5856710260   -1.0045818043
C       -0.5204300770    0.0496164663    1.0675917942
H       -0.7312546229   -0.6625442236    1.8567286993
13   
From optimize.out: Frame 33 / 42, Energy=    -286.8505294565
C        0.7345333622    0.0504997086    0.2499054647
C        0.9924425807   -1.2169271408   -0.5485860610
C        0.1191310132   -2.1745296624   -0.7460632395
C       -1.2952943893    1.0777053581    0.6148393612
C       -0.5077006305    1.7439683713   -0.4314449725
N        0.6429428906    1.2060808170   -0.6632156925
H        1.6016568460    0.2290204244    0.9055420438
H        1.9897098726   -1.2866827989   -0.9971852659
H        0.0939784559   -3.1086586049   -1.2938609735
H       -2.2182078014    1.4756404018    1.0216429786
H       -0.8328982615    2.6237915737   -0.9854412154
C       -0.5466769031    0.0467247580    1.0451884489
H       -0.7736170355   -0.6666332059    1.8286791231
13   
From optimize.out: Frame 35 / 42, Energy=    -286.8505674719
C        0.7126483269    0.0383233525    0.2343566594
C        0.9917701242   -1.2224294551   -0.5609656247
C        0.1575182173   -2.2236880552   -0.6985780388
C       -1.2917412200    1.1035543117    0.6152241875
C       -0.4944214792    1.7651878368   -0.4265900763
N        0.6396935042    1.2002783636   -0.6733517572
H        1.5679434518    0.2238479973    0.9054886185
H        1.9667369733   -1.2448431435   -1.0605094047
H        0.1487145146   -3.1729017125   -1.2197783120
H       -2.2128142002    1.4998107953    1.0280450857
H       -0.7987538798    2.6626297522   -0.9637869024
C       -0.5708104588    0.0443618152    1.0237489206
H       -0.8164838742   -0.6741318583    1.7966966444
13   
From optimize.out: Frame 37 / 42, Energy=    -286.8505712777
C        0.6933792253    0.0302871985    0.2205737328
C        0.9882265106   -1.2257901419   -0.5736237774
C        0.2007059746   -2.2705077224   -0.6454838854
C       -1.2890346936    1.1273874263    0.6146988650
C       -0.4791970709    1.7862256437   -0.4197625087
N        0.6390246404    1.1968333794   -0.6805241751
H        1.5370003721    0.2116528979    0.9091695316
H        1.9323092537   -1.2017199585   -1.1291678517
H        0.2061994632   -3.2315845374   -1.1442551580
H       -2.2123668201    1.5183526193    1.0274158539
H       -0.7671334999    2.6950870150   -0.9469471398
C       -0.5930527688    0.0445116089    1.0036232459
H       -0.8560605866   -0.6807354289    1.7642832671
13   
From optimize.out: Frame 39 / 42, Energy=    -286.8505803468
C        0.6787120666    0.0241603886    0.2105663865
C        0.9834234473   -1.2297691669   -0.5822374669
C        0.2431905667   -2.3109777217   -0.5892258756
C       -1.2880460639    1.1444028476    0.6084907741
C       -0.4657435022    1.8036068465   -0.4157969129
N        0.6423055051    1.1992117612   -0.6804999041
H        1.5146693077    0.2040028003    0.9101582078
H        1.8840179562   -1.1627365957   -1.2025645728
H        0.2656157750   -3.2849792633   -1.0613574267
H       -2.2186553574    1.5301412803    1.0097747601
H       -0.7350958274    2.7273638252   -0.9266546832
C       -0.6117658656    0.0453351443    0.9874385341
H       -0.8926280081   -0.6897621463    1.7319081796
13   
From optimize.out: Frame 40 / 42, Energy=    -286.8505846892
C        0.6643849621    0.0231482359    0.1974545059
C        0.9678099007   -1.2270815158   -0.6015580543
C        0.2901110457   -2.3480711366   -0.5349262913
C       -1.2884889765    1.1630337217    0.6079689322
C       -0.4516512104    1.8232565105   -0.4072185140
N        0.6459666173    1.2039591781   -0.6814733575
H        1.4941615480    0.1828393721    0.9102408069
H        1.8369825341   -1.1313782585   -1.2624080481
H        0.3356654812   -3.3344735914   -0.9783451510
H       -2.2289479652    1.5403965874    0.9937331203
H       -0.7086538791    2.7552904383   -0.9097024506
C       -0.6291621254    0.0476467271    0.9701605365
H       -0.9281779326   -0.6985662688    1.6960739650
13   
From optimize.out: Frame 41 / 42, Energy=    -286.8505851766
C        0.6811803230    0.0317936967    0.2156119993
C        0.9627661176   -1.2233317452   -0.5900318239
C        0.2675532960   -2.3347351359   -0.5389793213
C       -1.2861639979    1.1546114078    0.6052344057
C       -0.4534009560    1.8177589315   -0.4089599350
N        0.6579891053    1.2142700950   -0.6642781004
H        1.5273291672    0.1837620420    0.9088316254
H        1.8297741427   -1.1371404930   -1.2554242283
H        0.3023340206   -3.3107049610   -1.0065511347
H       -2.2520254188    1.4996642251    0.9567577263
H       -0.7184196235    2.7417342434   -0.9217213902
C       -0.6123296359    0.0543982618    0.9858516957
H       -0.9065865403   -0.6920805681    1.7136584814
