13   
From optimize.out: Frame 1 / 3, Energy=    -286.8584556587
C        1.5748599053    0.4457949738   -0.0860317622
C        0.8229557593   -0.8160969868    0.1166120050
C       -0.5200598419   -0.9688885888   -0.5830004170
C       -1.1192044585    0.3159568790   -0.0355108530
C       -0.3703706087    1.5798969100   -0.2390095761
N        0.9608892206    1.6152682476   -0.2557641101
H        2.6628065437    0.4376265632   -0.0979064375
H        1.4076710846   -1.7255910359    0.2501101110
H       -0.9239840208   -1.7415043410   -1.2229397507
H       -2.2059505343    0.3777711622   -0.0368483990
H       -0.9048727448    2.5181695490   -0.3803360835
C       -0.5012349421   -0.7476811506    0.8586617756
H       -0.8835053624   -1.2907221814    1.7119634976
13   
From optimize.out: Frame 2 / 3, Energy=    -286.8584653799
C        1.5751877236    0.4456964295   -0.0859246270
C        0.8224775221   -0.8153030354    0.1174561384
C       -0.5187162062   -0.9686041869   -0.5830774992
C       -1.1193980815    0.3160409781   -0.0361673903
C       -0.3701428071    1.5789271588   -0.2388473708
N        0.9609130039    1.6141495743   -0.2598457188
H        2.6634259738    0.4386562133   -0.0979529891
H        1.4063163589   -1.7246875642    0.2497027670
H       -0.9207244973   -1.7424615602   -1.2221101752
H       -2.2063341362    0.3789713473   -0.0331540677
H       -0.9040697882    2.5169144806   -0.3782928638
C       -0.5024268939   -0.7468623541    0.8584352223
H       -0.8865081718   -1.2914374808    1.7097785743
