13   
From qcts2.out: Frame 3 / 3, Energy=    -286.8730185625
C        0.5832350295   -0.0333885951    0.2355066697
C        0.8349740568   -1.2517002649   -0.6479918617
C        0.7723813990   -2.5033662033   -0.2566473842
C       -1.3060588139    1.2598472677    0.5105250009
C       -0.2836059577    1.9255162489   -0.3120521503
N        0.7824926344    1.2225779165   -0.5032907176
H        1.3278478850   -0.0377882861    1.0476652571
H        1.0910635210   -1.0134551827   -1.6864526385
H        0.9082475252   -3.4868001352   -0.6850291310
H       -2.2715075712    1.6733475454    0.7773861593
H       -0.3819140248    2.9204573420   -0.7419474671
C       -0.7992894734    0.0554151671    0.8375923094
H       -1.2578662100   -0.7306628199    1.4247359544
