13   
From optimize.out: Frame 24 / 25, Energy=    -286.8516735490
C        1.0918431871    0.2799420557    0.5084593209
C        0.9055643285   -0.9931703433   -0.3326926237
C       -0.4025144818   -1.0756662791   -0.6258838152
C       -1.0814473266    0.1439411724    0.0311892415
C       -0.4421382406    1.3816098886   -0.6301732424
N        0.8049740084    1.4811062327   -0.3790758163
H        2.0381411306    0.3877494274    1.0364811344
H        1.7037857060   -1.6606120475   -0.6384633482
H       -0.9124601364   -1.8187001688   -1.2293897903
H       -2.1680275795    0.1208834678    0.1152858240
H       -0.9691858428    2.0914680144   -1.2654672980
C       -0.2113110014    0.1769689155    1.2911729625
H       -0.3572237511   -0.5155203361    2.1185574514
13   
From optimize.out: Frame 22 / 25, Energy=    -286.8516371046
C        1.0928846090    0.2804724514    0.5074045734
C        0.9058517383   -0.9932393450   -0.3327546087
C       -0.4016355290   -1.0749914724   -0.6293193647
C       -1.0808846985    0.1397317279    0.0298986849
C       -0.4422013035    1.3777306092   -0.6318995121
N        0.8050494066    1.4787605530   -0.3830215883
H        2.0413143223    0.3890472454    1.0315263708
H        1.7033028198   -1.6635447969   -0.6332021786
H       -0.9106091825   -1.8191584746   -1.2311777326
H       -2.1674338737    0.1187505847    0.1149463973
H       -0.9701809208    2.0982168096   -1.2541265752
C       -0.2123256759    0.1792653757    1.2915080174
H       -0.3631317121   -0.5110412680    2.1202175164
13   
From optimize.out: Frame 20 / 25, Energy=    -286.8514458014
C        1.0913354710    0.2812485491    0.5144229206
C        0.9030665492   -0.9958635458   -0.3193226597
C       -0.4043219954   -1.0706730017   -0.6127143362
C       -1.0821092490    0.1513355156    0.0341918726
C       -0.4415444335    1.3856423668   -0.6339909920
N        0.8034887549    1.4845987462   -0.3719425044
H        2.0490523404    0.3888745057    1.0206406835
H        1.7014851305   -1.6582047189   -0.6368487901
H       -0.9151066458   -1.8040955137   -1.2285386090
H       -2.1697269101    0.1131838080    0.1061580724
H       -0.9684913551    2.0851131809   -1.2812147798
C       -0.2153602388    0.1727453813    1.2960744433
H       -0.3517674183   -0.5339052735    2.1130846789
13   
From optimize.out: Frame 18 / 25, Energy=    -286.8512065182
C        1.0996937509    0.2855628304    0.4960415864
C        0.9080522538   -0.9916288093   -0.3412702039
C       -0.4018063694   -1.0755516179   -0.6289943262
C       -1.0806394074    0.1431002963    0.0373344686
C       -0.4389187397    1.3711715950   -0.6423730289
N        0.8063232665    1.4815459021   -0.3920756714
H        2.0319029715    0.3938716192    1.0488561402
H        1.7045862795   -1.6625413157   -0.6425788736
H       -0.9155615538   -1.8254337034   -1.2201154387
H       -2.1678092204    0.1163057727    0.1142650132
H       -0.9643470832    2.1060154657   -1.2497552350
C       -0.2094072776    0.1745680334    1.2974428956
H       -0.3720688707   -0.5169860685    2.1232226735
13   
From optimize.out: Frame 17 / 25, Energy=    -286.8504983628
C        1.0751277605    0.2807444147    0.5151660739
C        0.9115277474   -0.9864631855   -0.3390458122
C       -0.4025050362   -1.0580417718   -0.6103428535
C       -1.0766691146    0.1481364020    0.0364878088
C       -0.4455777395    1.3952651196   -0.6234386323
N        0.8105570359    1.4649382190   -0.4002512313
H        2.0223078049    0.3945975064    1.0413045053
H        1.7074931866   -1.6641258523   -0.6273871138
H       -0.9347205159   -1.7924848065   -1.2020724233
H       -2.1629403881    0.0916129650    0.0982376358
H       -0.9577349527    2.0949502273   -1.2818867383
C       -0.2151771639    0.1850116462    1.3007347682
H       -0.3316886244   -0.5541408840    2.0924940130
13   
From optimize.out: Frame 16 / 25, Energy=    -286.8501894988
C        1.0969030189    0.2857183872    0.5108394842
C        0.8972421153   -0.9916369180   -0.3290752800
C       -0.4115541326   -1.0895977727   -0.6055089543
C       -1.0749528267    0.1425194831    0.0325654527
C       -0.4445191105    1.3850876097   -0.6284209417
N        0.7940422833    1.5065221244   -0.3316242137
H        2.0486557950    0.3749864209    1.0325205557
H        1.7000145268   -1.6517554225   -0.6378185580
H       -0.9170882231   -1.8135729133   -1.2355155861
H       -2.1612770571    0.1355047427    0.1258328405
H       -0.9670556054    2.0633331183   -1.3004842175
C       -0.2169545067    0.1770065370    1.2715334212
H       -0.3434562772   -0.5241153967    2.0951559970
13   
From optimize.out: Frame 15 / 25, Energy=    -286.8491340664
C        1.1035431589    0.2957997909    0.4826503557
C        0.8956741657   -1.0097432550   -0.3073873415
C       -0.3982209159   -1.0839669647   -0.6451700798
C       -1.0853811570    0.1613634737    0.0566395959
C       -0.4541873356    1.3889668233   -0.6202641642
N        0.8082129770    1.4746231197   -0.4049486204
H        2.0449681405    0.3846085283    1.0234803240
H        1.7010299080   -1.6830828568   -0.5805768853
H       -0.8893561404   -1.8174602253   -1.2782808327
H       -2.1728117708    0.1194795023    0.1230486804
H       -0.9874874851    2.1091443452   -1.2364246844
C       -0.2173723710    0.1635986245    1.2684785438
H       -0.3486111743   -0.5033309061    2.1187551083
13   
From optimize.out: Frame 14 / 25, Energy=    -286.8441990864
C        1.0733596896    0.2944787268    0.5170495139
C        0.8830206776   -0.9560200175   -0.3526549801
C       -0.4146235370   -1.0980041210   -0.6444509953
C       -1.0802209546    0.1724766749    0.1013248008
C       -0.4180646264    1.3383909315   -0.6370581068
N        0.8433029607    1.4498602790   -0.3802579709
H        2.0392301647    0.3584042547    1.0165665857
H        1.7127037110   -1.5653427836   -0.6907215054
H       -0.8992113984   -1.8345728865   -1.2713604316
H       -2.1679051364    0.1231007779    0.1358171750
H       -0.9357265271    2.0362798531   -1.2888293498
C       -0.2272310473    0.1449986365    1.3038874024
H       -0.4086339765   -0.4640503258    2.1906878622
13   
From optimize.out: Frame 13 / 25, Energy=    -286.8367281086
C        1.0862318257    0.2783403286    0.4988895374
C        0.8794483952   -0.9432945224   -0.3792113612
C       -0.4171585939   -1.0474484054   -0.6358695187
C       -1.0380444866    0.1428004534    0.0843085771
C       -0.4103266985    1.3222031673   -0.6182771881
N        0.8708336479    1.4298526595   -0.3735500876
H        2.0063337105    0.3580708245    1.0761917158
H        1.6965097592   -1.5588136722   -0.7284529718
H       -0.9776716465   -1.7619042789   -1.2051293819
H       -2.1148357375   -0.0048409041    0.0674871975
H       -0.9462430336    2.0155256677   -1.2577630831
C       -0.2248469942    0.1670451229    1.2754816208
H       -0.4102301477   -0.3975364409    2.1958949438
13   
From optimize.out: Frame 12 / 25, Energy=    -286.8326629820
C        1.1118900124    0.2680818589    0.4769564302
C        0.8800007493   -1.0110395638   -0.3345092543
C       -0.3954503839   -1.1148779069   -0.6671766522
C       -1.0599862088    0.2272843385    0.0800329328
C       -0.4547165776    1.4129703623   -0.5883957753
N        0.8324799225    1.4648705250   -0.3485157711
H        2.0432182326    0.3600423973    1.0349450803
H        1.7019286837   -1.6429998242   -0.6466150311
H       -0.9453730343   -1.8621119004   -1.2171879508
H       -2.1220280858   -0.0064845299    0.0361123991
H       -0.9873815839    2.1240091999   -1.2143647896
C       -0.2318458027    0.1888850685    1.2428321137
H       -0.3727359236   -0.4086300251    2.1458862683
13   
From optimize.out: Frame 11 / 25, Energy=    -286.8184553277
C        1.1190385470    0.2407477677    0.4544914684
C        0.9377508728   -1.0172396905   -0.3908145511
C       -0.3479055777   -1.1899793335   -0.5897789766
C       -1.1012951559    0.2795872841    0.0639401090
C       -0.4557855133    1.4517701994   -0.5742601525
N        0.8412786601    1.4461320441   -0.3560975264
H        2.0418275902    0.3432533281    1.0249147849
H        1.7709819434   -1.6111543818   -0.7507690465
H       -0.9302329204   -1.9734628862   -1.0496761944
H       -2.1596837497    0.0482177560   -0.0126689701
H       -0.9699738467    2.2178600038   -1.1486002067
C       -0.2878151732    0.1793018095    1.2156351409
H       -0.4581856767   -0.4150339009    2.1136841210
13   
From optimize.out: Frame 10 / 25, Energy=    -286.8134331808
C        1.1416231862    0.2992552627    0.4351608542
C        0.9393300769   -0.9829002428   -0.3570638010
C       -0.3402612473   -1.0938866515   -0.6554882955
C       -1.1140803444    0.2605689245    0.1284498527
C       -0.4285067913    1.3624724548   -0.6142922632
N        0.8698850681    1.4075010764   -0.4530103113
H        2.0553145651    0.4282915161    1.0177191507
H        1.7673957700   -1.6107628365   -0.6719352662
H       -0.9501900516   -1.8563503762   -1.1124379101
H       -2.1836122200    0.1024267558    0.0889144005
H       -0.9548857200    2.1258990040   -1.1784896951
C       -0.2879798990    0.0546249198    1.2300264361
H       -0.5140323926   -0.4971398071    2.1424468484
13   
From optimize.out: Frame 9 / 25, Energy=    -286.8106455721
C        1.0687835998    0.2779889051    0.4732615565
C        0.8710965124   -0.9659194151   -0.3873011579
C       -0.3790260397   -1.1105238629   -0.7735604437
C       -1.0728376646    0.2505366092    0.1698121998
C       -0.4221855062    1.3236066068   -0.6216705065
N        0.8804493206    1.4059807608   -0.3952363233
H        1.9884783586    0.3352829740    1.0582196864
H        1.7182396465   -1.5708439153   -0.6913279971
H       -0.9312375551   -1.8889271431   -1.2618711262
H       -2.1171334409   -0.0090116899    0.0869077334
H       -0.9502123357    2.0879491140   -1.1793408948
C       -0.2336177671    0.1727382545    1.2789577159
H       -0.4207971286   -0.3088571982    2.2431495577
13   
From optimize.out: Frame 8 / 25, Energy=    -286.7931856722
C        1.0047067732    0.3117387967    0.4141505467
C        0.8635304212   -0.9997743372   -0.3681881712
C       -0.3696027021   -1.2457018303   -0.7913639365
C       -1.0735715965    0.3468692484    0.1539260943
C       -0.4337376285    1.4478715053   -0.6408969537
N        0.8711571763    1.4577852436   -0.4650519191
H        1.8898273530    0.3879368587    1.0476121953
H        1.7332859310   -1.6141346315   -0.5800308499
H       -0.8405905796   -2.1317210274   -1.1826748208
H       -2.1421963178    0.1776275503    0.1162127775
H       -0.9520722571    2.2752224852   -1.1122524482
C       -0.1854645362    0.0575098484    1.2352793621
H       -0.3652720366   -0.4712297103    2.1732781236
13   
From optimize.out: Frame 7 / 25, Energy=    -286.7904541185
C        1.1261358870    0.2645747502    0.3860592638
C        0.9296634090   -1.0331460337   -0.3933212066
C       -0.3305031116   -1.3172001149   -0.6908179481
C       -1.1453397052    0.3658319723    0.0964341067
C       -0.4617481856    1.5074520450   -0.5847724299
N        0.8374441525    1.4636971371   -0.3984695803
H        2.0689096305    0.3403461559    0.9314194766
H        1.7860953573   -1.6207913201   -0.7126807651
H       -0.7886938753   -2.2352567234   -1.0207989268
H       -2.2086269042    0.1834354405   -0.0400389802
H       -0.9567497194    2.3768932162   -1.0038280217
C       -0.3441024705    0.1040282912    1.2411924174
H       -0.5124844645   -0.3998648164    2.1896225943
13   
From optimize.out: Frame 6 / 25, Energy=    -286.7739610548
C        1.0943109506    0.2529481070    0.4212651730
C        0.9005458373   -1.0166711999   -0.3245258915
C       -0.3431876491   -1.2565572342   -0.6636535500
C       -1.1736882291    0.3495505429    0.0420760293
C       -0.4812203375    1.4959274554   -0.6069673374
N        0.8153665923    1.4352862426   -0.3504540046
H        2.0186871030    0.3180017292    0.9985920187
H        1.7454672299   -1.6313787046   -0.6174900533
H       -0.7955177213   -2.1907375426   -0.9560449115
H       -2.2451295916    0.1592299690   -0.0714492250
H       -0.9567571024    2.4036026591   -0.9629275826
C       -0.3112345868    0.0845548564    1.0611131733
H       -0.2676424952   -0.4037568802    2.0304661616
13   
From optimize.out: Frame 5 / 25, Energy=    -286.7735619684
C        1.0567855283    0.2579456130    0.3850712759
C        0.8657340180   -0.9592335510   -0.3910297973
C       -0.3553457436   -1.0767246554   -0.8450760355
C       -1.0656158017    0.2367263906    0.1571094720
C       -0.4291265726    1.3637648046   -0.6268172634
N        0.8816719870    1.4046555235   -0.3945676851
H        1.9216226860    0.2919632223    1.0499827744
H        1.6814503033   -1.6297665243   -0.6348340629
H       -0.8412355350   -1.9845928362   -1.1814038001
H       -2.1241713847   -0.0185506370    0.0295897213
H       -0.9594364205    2.2058383816   -1.0588552164
C       -0.3200421127    0.1309667373    1.2409796102
H       -0.3122909519   -0.2229924689    2.2698510067
13   
From optimize.out: Frame 4 / 25, Energy=    -286.7509367976
C        1.1123856153    0.3304193197    0.3550537265
C        0.8321039760   -0.9190699058   -0.3568569429
C       -0.4520502384   -1.0779447785   -0.6673370625
C       -0.9609554259    0.2146726183    0.0569055569
C       -0.3817250583    1.4553056764   -0.6176851629
N        0.8853465106    1.5252618371   -0.3677054318
H        2.0311191588    0.3683927940    0.9433981225
H        1.6164735298   -1.6100759534   -0.6611432229
H       -0.9268189845   -2.0504206748   -0.8831388720
H       -1.9898290338   -0.0991651201   -0.1857806256
H       -0.9510122168    2.2883099936   -1.0258491625
C       -0.3635200773    0.0148419319    1.2178957443
H       -0.4515177555   -0.4405277384    2.1922433327
13   
From optimize.out: Frame 3 / 25, Energy=    -286.7228487512
C        1.1798871419    0.2669056549    0.2647019277
C        0.9525505119   -1.0204232879   -0.4434743743
C       -0.3527674451   -1.3228245792   -0.6378273884
C       -1.0697331346    0.3666491208    0.1037676687
C       -0.4072187588    1.5866766811   -0.5584969956
N        0.8300586029    1.5440758732   -0.3534930535
H        2.1505168601    0.3452583995    0.7583995727
H        1.7685206945   -1.6463272144   -0.8234357516
H       -0.6971899145   -2.3859707786   -0.7960497919
H       -2.1302199355    0.1578804192   -0.1586677828
H       -0.9293388111    2.4738018902   -0.9261882875
C       -0.5621032586    0.0509922061    1.3138069152
H       -0.7329625531   -0.4166943849    2.2569573413
13   
From optimize.out: Frame 2 / 25, Energy=    -286.6649202496
C        1.2263270613    0.2008519042    0.1872389608
C        1.0461638171   -1.1031247411   -0.5450152149
C       -0.2628565385   -1.5111616443   -0.6265278251
C       -1.1368666359    0.4695651281    0.1543644511
C       -0.4212153184    1.6768472569   -0.5003952048
N        0.7825726708    1.5497590993   -0.3189563883
H        2.2307556155    0.3086146940    0.6016002718
H        1.8714525071   -1.6750201701   -1.0028064930
H       -0.4902799809   -2.6341760081   -0.7481859693
H       -2.2106686201    0.3308318429   -0.1361205405
H       -0.9070831986    2.5962491678   -0.8510232654
C       -0.7398745000    0.1149629020    1.4297102695
H       -0.9884268795   -0.3241994316    2.3561169482
13   
From optimize.out: Frame 1 / 25, Energy=    -286.6094236637
C        1.1462168153    0.1071496716    0.1714531879
C        1.0586753317   -1.1687705508   -0.6571779954
C       -0.2437179935   -1.6013450553   -0.8658268296
C       -1.0957807950    0.5049058729    0.2703112359
C       -0.4345728379    1.6837409611   -0.4858061446
N        0.7334727939    1.5248506248   -0.2666723317
H        2.1233131738    0.1868854810    0.6517108509
H        1.9295083785   -1.7075172423   -1.0827919525
H       -0.3967276171   -2.7462567610   -1.0468181337
H       -2.1704418444    0.3117649439   -0.0068860435
H       -0.9301886196    2.5825379729   -0.8825920360
C       -0.7346889225    0.3201924018    1.6182558980
H       -0.9850678631    0.0018616795    2.5828402943
13   
C5H5N+CH->C6H6N atoms 1-13 frame 148 charge +0.000 sz -1.000 sz^2 1.424
C        1.1462168153    0.1071496716    0.1714531879
C        1.0586753317   -1.1687705508   -0.6571779954
C       -0.2437179935   -1.6013450553   -0.8658268296
C       -1.0957807950    0.5049058729    0.2703112359
C       -0.4345728379    1.6837409611   -0.4858061446
N        0.7334727939    1.5248506248   -0.2666723317
H        2.1233131738    0.1868854810    0.6517108509
H        1.9295083785   -1.7075172423   -1.0827919525
H       -0.3967276171   -2.7462567610   -1.0468181337
H       -2.1704418444    0.3117649439   -0.0068860435
H       -0.9301886196    2.5825379729   -0.8825920360
C       -0.7346889225    0.3201924018    1.6182558980
H       -0.9850678631    0.0018616795    2.5828402943
13   
C5H5N+CH->C6H6N atoms 1-13 frame 149 charge -0.000 sz -1.000 sz^2 1.377
C        1.1385793180    0.1027084231    0.1733259594
C        1.0553490258   -1.1658896524   -0.6746487975
C       -0.2428501136   -1.6106684525   -0.8734673793
C       -1.0905484583    0.5061550487    0.2923587420
C       -0.4297484864    1.6721245666   -0.4831721259
N        0.7421232484    1.5220194360   -0.2780046692
H        2.1113605199    0.1872647962    0.6530819650
H        1.9329162285   -1.6865259927   -1.1001689629
H       -0.3927744348   -2.7365849404   -1.0578180643
H       -2.1649624614    0.3347257800   -0.0180484688
H       -0.9332444691    2.5549088633   -0.8923294867
C       -0.7259559339    0.3069767703    1.6411217941
H       -1.0002439832    0.0127853539    2.6177694941
13   
C5H5N+CH->C6H6N atoms 1-13 frame 150 charge +0.000 sz -1.000 sz^2 1.321
C        1.1314748483    0.0987679495    0.1750122347
C        1.0513790346   -1.1628361493   -0.6920387517
C       -0.2412357740   -1.6206838899   -0.8809456678
C       -1.0862137407    0.5072245496    0.3144011113
C       -0.4262905790    1.6598400476   -0.4811145786
N        0.7521232568    1.5187537581   -0.2902999054
H        2.0995440322    0.1880682751    0.6551938144
H        1.9359190031   -1.6646918561   -1.1159474934
H       -0.3899578421   -2.7233416131   -1.0693494649
H       -2.1578777888    0.3575918951   -0.0285355140
H       -0.9366509294    2.5259348521   -0.9027900392
C       -0.7165546730    0.2940379265    1.6624857724
H       -1.0156588480    0.0213342547    2.6539284824
13   
C5H5N+CH->C6H6N atoms 1-13 frame 151 charge -0.000 sz -1.000 sz^2 1.275
C        1.1248570135    0.0953886675    0.1766428856
C        1.0467542343   -1.1595362668   -0.7091632691
C       -0.2388634719   -1.6311877863   -0.8882330729
C       -1.0828157639    0.5082495315    0.3364410894
C       -0.4241021643    1.6469759286   -0.4794860214
N        0.7633969735    1.5151101213   -0.3034158263
H        2.0881072286    0.1891146476    0.6584147224
H        1.9386741371   -1.6421681955   -1.1301573483
H       -0.3885159668   -2.7076674113   -1.0815822575
H       -2.1492109580    0.3802582225   -0.0378988803
H       -0.9405035387    2.4961191643   -0.9140224392
C       -0.7066935676    0.2814679099    1.6824254358
H       -1.0310841560    0.0278754667    2.6900349818
13   
C5H5N+CH->C6H6N atoms 1-13 frame 152 charge +0.000 sz -1.000 sz^2 1.036
C        1.1186894594    0.0926442780    0.1783678984
C        1.0414733848   -1.1558948222   -0.7258200680
C       -0.2357278795   -1.6419113125   -0.8952844595
C       -1.0803718906    0.5094065130    0.3584924973
C       -0.4230060286    1.6336501072   -0.4781082622
N        0.7758511552    1.5111713420   -0.3171787783
H        2.0772808822    0.1902207359    0.6631065302
H        1.9413459358   -1.6190913343   -1.1428314478
H       -0.3887484274   -2.6910133011   -1.0947575756
H       -2.1390873053    0.4026397524   -0.0456946163
H       -0.9448780394    2.4660119234   -0.9260577932
C       -0.6965855835    0.2693828243    1.7010617507
H       -1.0462356631    0.0327832940    2.7247043244
13   
From optimize.out: Frame 1 / 22, Energy=    -286.6171712864
C        1.1129410715    0.0906339030    0.1803210718
C        1.0355785727   -1.1517843283   -0.7418061359
C       -0.2318128081   -1.6525329544   -0.9020639391
C       -1.0788464366    0.5109076314    0.3805863987
C       -0.4227499586    1.6200076715   -0.4768057169
N        0.7893886185    1.5070427187   -0.3313908467
H        2.0672455928    0.1912034227    0.6695948904
H        1.9441108398   -1.5955584782   -1.1540267419
H       -0.3909978912   -2.6750791201   -1.1091401418
H       -2.1277919581    0.4247364782   -0.0514977891
H       -0.9498151147    2.4361516764   -0.9389116908
C       -0.6864221061    0.2579189656    1.7185254959
H       -1.0608284219    0.0363524135    2.7566151455
13   
From optimize.out: Frame 2 / 22, Energy=    -286.6735655385
C        1.1743361775    0.1688493478    0.2055021027
C        1.0237691298   -1.1100987738   -0.6221773342
C       -0.2421208080   -1.6036651081   -0.6800831085
C       -1.1340503506    0.4983841519    0.2528439042
C       -0.4229983935    1.6444733374   -0.4858953420
N        0.8113068515    1.5256269655   -0.3655180874
H        2.1563813693    0.2921712041    0.6406115810
H        1.9018025212   -1.5819199829   -1.0660872127
H       -0.4537222593   -2.6355796683   -0.8364825344
H       -2.1919953656    0.4674672709   -0.1467016009
H       -0.9279961118    2.5067814407   -0.8936555722
C       -0.6852903478    0.0856049272    1.4946720587
H       -1.0094224126   -0.2580951123    2.5029711457
13   
From optimize.out: Frame 3 / 22, Energy=    -286.7276022943
C        1.1152871374    0.2153339118    0.2789145573
C        0.9502695397   -1.0634410455   -0.5091159827
C       -0.3095986701   -1.5048063597   -0.6580473701
C       -1.1135152788    0.4562610918    0.1723893376
C       -0.4287304490    1.6190628097   -0.5188715025
N        0.8264965454    1.5176917064   -0.3717268899
H        2.0757562796    0.3132358022    0.7767452793
H        1.8360207278   -1.5770603544   -0.8842093550
H       -0.5894713556   -2.5302097649   -0.8352240405
H       -2.1814553442    0.3676402617   -0.1556025969
H       -0.9376918361    2.4936922625   -0.9064672491
C       -0.5259454174    0.0453238865    1.3035839644
H       -0.7174218788   -0.3527242083    2.3076318482
13   
From optimize.out: Frame 4 / 22, Energy=    -286.7671222084
C        1.0255172447    0.2388557314    0.3665553345
C        0.8749654315   -1.0335239778   -0.4145344936
C       -0.3634395873   -1.4240679347   -0.6928873832
C       -1.0991945709    0.4228011486    0.1218630476
C       -0.4426736072    1.5840919710   -0.5529216763
N        0.8301388688    1.4933048911   -0.3670707679
H        1.9499875626    0.3059420138    0.9414243839
H        1.7730204875   -1.5783814651   -0.7059780966
H       -0.6987289147   -2.4333610080   -0.9233360170
H       -2.1726567691    0.2686939817   -0.1140395911
H       -0.9479366919    2.4685848211   -0.9331255544
C       -0.3467636770    0.0538272762    1.1384622502
H       -0.3822357770   -0.3667674492    2.1355885641
13   
From optimize.out: Frame 5 / 22, Energy=    -286.7834395480
C        1.0038419702    0.1806221422    0.3689500703
C        0.9325575930   -1.0739666069   -0.4429484118
C       -0.2549549766   -1.4589699273   -0.8586056980
C       -1.2190402754    0.4959930576    0.2481737853
C       -0.4819491208    1.5112585707   -0.5514686037
N        0.8132422175    1.3771009170   -0.4208204340
H        1.9035029126    0.2550754742    0.9880555055
H        1.8636018368   -1.5875011164   -0.6833939214
H       -0.5904428404   -2.4450718013   -1.2021552288
H       -2.3087035333    0.4086577772    0.1438785010
H       -0.9364687795    2.4125289080   -0.9632800324
C       -0.3755619363    0.1413833576    1.1823900691
H       -0.3496250679   -0.2171107526    2.1912243989
13   
From optimize.out: Frame 6 / 22, Energy=    -286.8031006390
C        1.0008796161    0.2090901905    0.3622277651
C        0.9619472983   -1.0836024023   -0.4180042173
C       -0.2019720055   -1.5054050530   -0.8622355291
C       -1.2798396584    0.5872915308    0.3083113510
C       -0.4932404101    1.5061112899   -0.5731527454
N        0.8023673654    1.3412535312   -0.5097573439
H        1.9071440944    0.3094069151    0.9692090370
H        1.9103447650   -1.5770230127   -0.6349701249
H       -0.5262946773   -2.4866549367   -1.2284469129
H       -2.3697433190    0.5989660309    0.2962403094
H       -0.9144570807    2.4154337336   -1.0022805890
C       -0.3970237113    0.0609317266    1.1572159801
H       -0.4001122770   -0.3757995439    2.1356430198
13   
From optimize.out: Frame 7 / 22, Energy=    -286.8210028069
C        0.9527438354    0.1980811164    0.3358668513
C        0.9804369669   -1.1273972133   -0.4289274060
C       -0.1235903379   -1.6671352471   -0.8899733027
C       -1.3200034782    0.7366451413    0.3887010667
C       -0.5176431061    1.5618321531   -0.5508969990
N        0.7643534813    1.3027278747   -0.5762700491
H        1.8680175614    0.3118762077    0.9290931444
H        1.9648303900   -1.5612822673   -0.6154863944
H       -0.3800974929   -2.6650484380   -1.2667914331
H       -2.3963227826    0.8042802287    0.4643927392
H       -0.8907946845    2.4900845158   -0.9871714292
C       -0.4222620447    0.0677559771    1.1309508696
H       -0.4796683081   -0.4524200491    2.0665123423
13   
From optimize.out: Frame 8 / 22, Energy=    -286.8320907237
C        0.8967934453    0.2008501531    0.3436651519
C        0.9610049674   -1.1449543977   -0.4074724830
C       -0.0965763102   -1.7436714134   -0.8921246715
C       -1.2948629680    0.8238257045    0.4382374622
C       -0.5240819693    1.6020591976   -0.5389465999
N        0.7418064496    1.2961515446   -0.6035380140
H        1.8110066399    0.3095966595    0.9399913576
H        1.9655538946   -1.5447713987   -0.5788746011
H       -0.3363679363   -2.7243938992   -1.3090201481
H       -2.3615724264    0.8709541319    0.5842765979
H       -0.8952608122    2.5017172342   -1.0342228440
C       -0.3696704618    0.0800248138    1.0882231138
H       -0.4977725125   -0.5273883301    1.9698056782
13   
From optimize.out: Frame 9 / 22, Energy=    -286.8404289013
C        0.8583412578    0.1461872823    0.2932756757
C        1.0095305304   -1.2012385256   -0.4352393173
C        0.0040974673   -1.8922532808   -0.9113575360
C       -1.3019261011    0.9683855653    0.5375983982
C       -0.5520143845    1.6509550159   -0.5155486695
N        0.6714103323    1.2443637242   -0.6581091408
H        1.7705019092    0.3090320866    0.8778158686
H        2.0415828611   -1.5303950205   -0.6041824913
H       -0.1613624598   -2.8805361111   -1.3299298746
H       -2.3474466583    1.1321646113    0.7746121237
H       -0.8899364077    2.5537244465   -1.0269566295
C       -0.4648732243    0.0753269122    1.0741408709
H       -0.6379051226   -0.5757167064    1.9238807218
13   
From optimize.out: Frame 10 / 22, Energy=    -286.8441278176
C        0.8046835448    0.1232727303    0.2575329016
C        1.0105573046   -1.2151315079   -0.4639177560
C        0.0391047170   -1.9693490983   -0.9105925966
C       -1.2834536784    1.0224267732    0.5838307999
C       -0.5324778702    1.6887855613   -0.4877359715
N        0.6503474012    1.2080305691   -0.7095246280
H        1.6881392710    0.3083335882    0.8794575498
H        2.0561815892   -1.4960200557   -0.6392077267
H       -0.0872771696   -2.9577619330   -1.3397146497
H       -2.3175674258    1.2156273900    0.8442948601
H       -0.8707453656    2.5733997671   -1.0290415379
C       -0.4746160932    0.0890643993    1.0989660894
H       -0.6828762250   -0.5906781838    1.9156526655
13   
From optimize.out: Frame 11 / 22, Energy=    -286.8468002419
C        0.7704899818    0.0937656150    0.2789799252
C        1.0087987210   -1.2213617246   -0.4710956931
C        0.0660226104   -2.0408629589   -0.8631192246
C       -1.2870284460    1.0710263484    0.6056336697
C       -0.5207098753    1.7108753271   -0.4720149956
N        0.6419563277    1.1872992453   -0.6915371548
H        1.6703545211    0.2883666475    0.8771975640
H        2.0566213632   -1.4305796439   -0.7200527621
H       -0.0264295161   -3.0124338196   -1.3333659328
H       -2.3030972111    1.3045829155    0.8963334444
H       -0.8698479201    2.5498168122   -1.0742088920
C       -0.4940226631    0.1015634477    1.0881451236
H       -0.7131078935   -0.6020582117    1.8791049280
13   
From optimize.out: Frame 12 / 22, Energy=    -286.8483182117
C        0.7445788041    0.0671720323    0.2525735268
C        1.0194473962   -1.2383410399   -0.4891098483
C        0.1072660749   -2.1207764537   -0.8126536973
C       -1.2862568733    1.1071613805    0.6135188598
C       -0.5197094700    1.7250341348   -0.4776172626
N        0.6284461533    1.1771500068   -0.7069781371
H        1.6034742311    0.2812416883    0.9054332179
H        2.0605670872   -1.3824284149   -0.8030201803
H        0.0455413272   -3.0889786587   -1.2938684369
H       -2.2615468445    1.4151890943    0.9690523734
H       -0.8543410631    2.5788840684   -1.0664676752
C       -0.5310913887    0.0881092682    1.0572520057
H       -0.7563754344   -0.6094171065    1.8518852540
13   
From optimize.out: Frame 13 / 22, Energy=    -286.8490228910
C        0.7127978303    0.0422999000    0.2549534106
C        1.0193745916   -1.2425527985   -0.5024728705
C        0.1556351875   -2.2004904658   -0.7362235989
C       -1.2922914634    1.1346778780    0.6154261039
C       -0.5099131030    1.7238245129   -0.4833489403
N        0.6266279322    1.1552266955   -0.7088925140
H        1.5821710577    0.2610343845    0.8957470633
H        2.0277279676   -1.2924161535   -0.9313965953
H        0.1210637056   -3.1534568493   -1.2478694883
H       -2.2521410765    1.4776840795    0.9795921231
H       -0.8146872397    2.5980636676   -1.0575295345
C       -0.5631554626    0.0934630183    1.0637261983
H       -0.8132099273   -0.5973578691    1.8582886426
13   
From optimize.out: Frame 14 / 22, Energy=    -286.8493758973
C        0.6841039677    0.0236602305    0.2297811679
C        1.0189967438   -1.2584357486   -0.5045798031
C        0.1923000476   -2.2702485939   -0.6507710961
C       -1.2903312968    1.1516306040    0.6000813897
C       -0.4900133782    1.7629289213   -0.4731974298
N        0.6137802329    1.1530555386   -0.7298888463
H        1.5235359380    0.2661313466    0.9062010481
H        1.9960396731   -1.2516732212   -1.0010800498
H        0.1858788329   -3.2153829093   -1.1756798030
H       -2.2273065456    1.5333669313    0.9931504595
H       -0.7899341948    2.6485119307   -1.0316993240
C       -0.5845623032    0.0780243696    1.0225214797
H       -0.8324877174   -0.6215693996    1.8151608071
13   
From optimize.out: Frame 15 / 22, Energy=    -286.8496497676
C        0.6858617681    0.0315937636    0.2291704887
C        0.9999087666   -1.2382970665   -0.5426561958
C        0.2064264999   -2.2828913642   -0.6111615001
C       -1.2892364443    1.1581994506    0.5984537550
C       -0.4810878410    1.7607265438   -0.4763573426
N        0.6471676789    1.1810485178   -0.7038411162
H        1.5188927834    0.2348081501    0.9267381480
H        1.9638324403   -1.2220704781   -1.0630681670
H        0.2142711230   -3.2449496119   -1.1074694032
H       -2.2343227441    1.5319140723    0.9734345430
H       -0.7891995161    2.6368855301   -1.0458702190
C       -0.5883611896    0.0767857490    1.0195251492
H       -0.8541533250   -0.6237532566    1.8031018599
13   
From optimize.out: Frame 16 / 22, Energy=    -286.8499938920
C        0.6916427524    0.0340692144    0.2275911710
C        1.0068955400   -1.2412204351   -0.5373501345
C        0.2119197963   -2.2834811130   -0.5914583995
C       -1.2932666824    1.1597778441    0.5964597643
C       -0.4818102083    1.7660133630   -0.4731955575
N        0.6383004532    1.1729946310   -0.7142803611
H        1.5317048698    0.2440708051    0.9127831519
H        1.9585627667   -1.2241132613   -1.0795367060
H        0.2227186894   -3.2577642603   -1.0649371688
H       -2.2545141733    1.5164293301    0.9450458388
H       -0.7663205839    2.6670133409   -1.0161475177
C       -0.5970940222    0.0776942020    1.0118084124
H       -0.8687391977   -0.6314836609    1.7832175067
13   
From optimize.out: Frame 17 / 22, Energy=    -286.8501436271
C        0.7000706680    0.0463905018    0.2396660688
C        1.0013533349   -1.2396420646   -0.5173031184
C        0.2008992807   -2.2782204878   -0.5768212173
C       -1.2902670648    1.1348394176    0.5740851792
C       -0.4772249005    1.7687777984   -0.4743606598
N        0.6524906238    1.1895403388   -0.6955758136
H        1.5589181463    0.2467268736    0.9021857967
H        1.9311634285   -1.2146558934   -1.0955117948
H        0.2062905579   -3.2499713793   -1.0554414745
H       -2.2580056256    1.4837818993    0.9148378218
H       -0.7649418669    2.6666819137   -1.0210628003
C       -0.5915883256    0.0747507054    1.0152575889
H       -0.8691582566   -0.6289996236    1.7900444232
13   
From optimize.out: Frame 18 / 22, Energy=    -286.8504478796
C        0.6912988222    0.0412488456    0.2311210240
C        0.9889559486   -1.2358685272   -0.5380032126
C        0.2354386958   -2.3115802176   -0.5290031922
C       -1.2949192110    1.1497708759    0.5697184092
C       -0.4694553013    1.7861723925   -0.4674551834
N        0.6517922584    1.1931063267   -0.6954425126
H        1.5388522788    0.2296254870    0.9125038611
H        1.8949084977   -1.1890933774   -1.1520946800
H        0.2590358244   -3.2920593216   -0.9882989373
H       -2.2643265458    1.4998319741    0.9058295611
H       -0.7458435508    2.6888569992   -1.0114029930
C       -0.6012930216    0.0777645807    0.9995013530
H       -0.8844446954   -0.6377760379    1.7630265027
13   
From optimize.out: Frame 19 / 22, Energy=    -286.8505253356
C        0.6821431055    0.0396400601    0.2206457799
C        0.9780464201   -1.2324362592   -0.5498706279
C        0.2659806460   -2.3328482341   -0.4883902512
C       -1.2943298532    1.1609714305    0.5695336657
C       -0.4608187500    1.7978142069   -0.4615923073
N        0.6555309583    1.1956788056   -0.6963945781
H        1.5222211247    0.2204050813    0.9138612206
H        1.8608807083   -1.1686818681   -1.1958360248
H        0.3065742423   -3.3216204846   -0.9285940839
H       -2.2619654123    1.5155711698    0.9077177988
H       -0.7316694648    2.7033338282   -1.0034785493
C       -0.6160091493    0.0738011807    0.9808970930
H       -0.9065845756   -0.6516289171    1.7315008645
13   
From optimize.out: Frame 20 / 22, Energy=    -286.8505363867
C        0.6861876559    0.0431510114    0.2214063279
C        0.9716559921   -1.2325902225   -0.5503549940
C        0.2778140921   -2.3438726992   -0.4702302986
C       -1.2939763632    1.1630168627    0.5663989154
C       -0.4591734185    1.8030631833   -0.4612463567
N        0.6591871510    1.2037445163   -0.6904037331
H        1.5259083094    0.2162362110    0.9171628339
H        1.8375115484   -1.1621238585   -1.2189490893
H        0.3159754016   -3.3320752764   -0.9102953738
H       -2.2702540766    1.5054734974    0.8909690981
H       -0.7269283206    2.7097468403   -1.0024725116
C       -0.6128286215    0.0798842962    0.9841938081
H       -0.9110793500   -0.6536543620    1.7238213736
13   
From optimize.out: Frame 21 / 22, Energy=    -286.8505512405
C        0.6822899434    0.0415096546    0.2203829730
C        0.9717214916   -1.2328741331   -0.5520894346
C        0.2779670773   -2.3441806303   -0.4771905431
C       -1.2956960677    1.1615508920    0.5651641003
C       -0.4600398951    1.8024582821   -0.4603410045
N        0.6565619423    1.2002719195   -0.6922197799
H        1.5248037587    0.2156299495    0.9124935218
H        1.8444104259   -1.1636926530   -1.2119922046
H        0.3185699088   -3.3329450244   -0.9163683996
H       -2.2657901921    1.5115546485    0.8994236281
H       -0.7264711380    2.7111917997   -0.9990922159
C       -0.6164580303    0.0781587458    0.9823380720
H       -0.9118692246   -0.6486334510    1.7294912871
