13   
From qcts2.out: Frame 3 / 3, Energy=    -286.8561843435
C        1.5984347897    0.3885287601   -0.1739450571
C        0.9424011772   -0.8446051493   -0.1757696699
C       -0.5066546816   -0.9919532158   -0.4031800304
C       -1.1200555247    0.3449233748    0.0855975749
C       -0.3459791143    1.5639288277   -0.2760550508
N        0.9495447869    1.5831455464   -0.3611205073
H        2.6661205843    0.4391808047    0.0133393687
H        1.5248361562   -1.7547741179   -0.0538157379
H       -0.9973499013   -1.7339315185   -1.0258078735
H       -2.2037119529    0.4310588253    0.0006652124
H       -0.8907344675    2.4711123322   -0.5366950965
C       -0.6326716826   -0.6962835615    1.0151240085
H       -0.9946935826   -1.2082432875    1.8929751225
