13   
Frame   0 IRC: Energy =  -286.8765340000 ; +0.0000 kcal/mol
C        1.6961896235    0.2910913340   -0.2562475246
C        1.1024641072   -0.9098530444   -0.0665970477
C       -0.3442786271   -1.0466614350    0.1650798587
C       -1.1478606630    0.3635609358   -0.0445855575
C       -0.2777981747    1.4737833930   -0.4744290197
N        1.0120695657    1.4853007544   -0.4907189456
H        2.7734389752    0.3636894575   -0.3710690082
H        1.6945118694   -1.8202707958   -0.1091027647
H       -0.8080220960   -1.9768711107   -0.1663343901
H       -2.1439049122    0.3612968415   -0.4906871160
H       -0.7856330212    2.3606255466   -0.8586635118
C       -0.9928474394   -0.3100877597    1.2462344857
H       -1.7783292075   -0.6356041174    1.9171205411
13   
Frame   1 IRC: Energy =  -286.8759620892 ; +0.3589 kcal/mol
C        1.6986375890    0.2845646088   -0.2800677205
C        1.1097952801   -0.9111419530   -0.0611130973
C       -0.3377028530   -1.0408009779    0.1878519932
C       -1.1468664293    0.3380413953   -0.0804334461
C       -0.2766391786    1.4749021000   -0.4529649797
N        1.0120026866    1.4899308411   -0.4670930444
H        2.7706395690    0.3546098725   -0.4385466145
H        1.6978041678   -1.8235380933   -0.1123798314
H       -0.7922997084   -1.9860653889   -0.1133702538
H       -2.1208476645    0.3144160062   -0.5733047904
H       -0.7872136882    2.3901422822   -0.7592236366
C       -1.0187850034   -0.2878010167    1.2389723025
H       -1.8085247671   -0.5972596762    1.9116731189
13   
Frame   2 IRC: Energy =  -286.8747078626 ; +1.1459 kcal/mol
C        1.6979338686    0.2779816784   -0.2964790549
C        1.1152960705   -0.9153435144   -0.0612278879
C       -0.3336214226   -1.0368734520    0.2016969166
C       -1.1463438401    0.3093370596   -0.1226752697
C       -0.2786922741    1.4722272071   -0.4337813901
N        1.0086438559    1.4923968483   -0.4340112204
H        2.7645758883    0.3503408524   -0.4865894140
H        1.6992518931   -1.8290504985   -0.1234814556
H       -0.7834009165   -1.9938573256   -0.0716819722
H       -2.0969217329    0.2628402067   -0.6613102009
H       -0.7931670452    2.4081416271   -0.6577688769
C       -1.0390595134   -0.2637131940    1.2227889840
H       -1.8144948314   -0.5344274953    1.9245208421
13   
Frame   3 IRC: Energy =  -286.8726732026 ; +2.4227 kcal/mol
C        1.6954583488    0.2720638623   -0.3075477849
C        1.1192910413   -0.9211472429   -0.0632574232
C       -0.3322567704   -1.0362744739    0.2076307362
C       -1.1470468923    0.2796609961   -0.1692434860
C       -0.2832652961    1.4652630924   -0.4124912969
N        1.0031348730    1.4918924829   -0.3961426491
H        2.7571482488    0.3501699186   -0.5223494560
H        1.7008259505   -1.8357296143   -0.1392790373
H       -0.7766031268   -2.0027389620   -0.0397080338
H       -2.0717587188    0.2132450785   -0.7475474216
H       -0.8037504978    2.4145880990   -0.5562398416
C       -1.0549160422   -0.2396831247    1.1993033684
H       -1.8062611179   -0.4513101121    1.9468723257
13   
Frame   4 IRC: Energy =  -286.8699228968 ; +4.1485 kcal/mol
C        1.6929428728    0.2676299974   -0.3165728399
C        1.1227614662   -0.9269287789   -0.0676920748
C       -0.3311643457   -1.0376581239    0.2105704224
C       -1.1482139327    0.2510529011   -0.2148763088
C       -0.2892578254    1.4553430952   -0.3914185673
N        0.9972301282    1.4883928580   -0.3574913802
H        2.7501636066    0.3529607863   -0.5492400917
H        1.7019923476   -1.8425336778   -0.1585203667
H       -0.7698825950   -2.0130051664   -0.0090170616
H       -2.0486114431    0.1697803796   -0.8271901134
H       -0.8170640134    2.4103335157   -0.4546675175
C       -1.0710052447   -0.2187227029    1.1711048209
H       -1.7898910215   -0.3566450834    1.9650110784
13   
Frame   5 IRC: Energy =  -286.8665259375 ; +6.2802 kcal/mol
C        1.6910687390    0.2644042044   -0.3260465940
C        1.1253977169   -0.9326139614   -0.0770386586
C       -0.3288180405   -1.0390905809    0.2104423149
C       -1.1502731554    0.2240979065   -0.2611355242
C       -0.2959973266    1.4408634507   -0.3698880198
N        0.9916530729    1.4818868419   -0.3211766843
H        2.7468664746    0.3588295243   -0.5660821777
H        1.7025557918   -1.8498909004   -0.1809240625
H       -0.7643154014   -2.0218766813    0.0307935736
H       -2.0309770854    0.1324321319   -0.8972891910
H       -0.8329664330    2.3954608695   -0.3499868026
C       -1.0829096669   -0.1955861086    1.1388144973
H       -1.7712846858   -0.2589166967    1.9695173290
13   
Frame   6 IRC: Energy =  -286.8625654625 ; +8.7654 kcal/mol
C        1.6917017655    0.2608966454   -0.3366426505
C        1.1293810354   -0.9394996944   -0.0950936761
C       -0.3254658544   -1.0344770597    0.2056969487
C       -1.1526132633    0.1971358380   -0.3086439811
C       -0.3041902525    1.4248253367   -0.3468838607
N        0.9848197065    1.4712205641   -0.2885435679
H        2.7480042912    0.3669298467   -0.5700168517
H        1.7022520794   -1.8582098745   -0.2024427379
H       -0.7641655677   -2.0251486788    0.0835214512
H       -2.0260677775    0.1010709058   -0.9560435334
H       -0.8505254628    2.3659493288   -0.2428415778
C       -1.0829484281   -0.1614284615    1.1054308949
H       -1.7501822716   -0.1692646964    1.9525031423
13   
Frame   7 IRC: Energy =  -286.8579473693 ; +11.6633 kcal/mol
C        1.6944508000    0.2583609359   -0.3461587898
C        1.1326007760   -0.9473948334   -0.1192955670
C       -0.3211201912   -1.0227276204    0.1932731367
C       -1.1605680383    0.1679741295   -0.3576201699
C       -0.3164806010    1.3993985923   -0.3068569649
N        0.9790365594    1.4548331291   -0.2610639885
H        2.7525340107    0.3735882568   -0.5637434348
H        1.7019405966   -1.8678547308   -0.2153424673
H       -0.7690737262   -2.0150720123    0.1383804134
H       -2.0375656094    0.0767150483   -1.0020434036
H       -0.8697206072    2.3257704236   -0.1473230346
C       -1.0619933451   -0.1048674419    1.0703718552
H       -1.7240406240   -0.0987238767    1.9174224151
13   
Frame   8 IRC: Energy =  -286.8550863772 ; +13.4586 kcal/mol (Transition State)
C        1.6960664014    0.2654024917   -0.3488829215
C        1.1287186547   -0.9536118143   -0.1330061060
C       -0.3178959643   -1.0121130749    0.1791186229
C       -1.1774548913    0.1354333234   -0.3998881906
C       -0.3437419859    1.3514040018   -0.2047509674
N        0.9866478189    1.4354391825   -0.2607006946
H        2.7568170302    0.3746701992   -0.5576297039
H        1.7004294836   -1.8722456518   -0.2184781059
H       -0.7734246619   -2.0027172133    0.1647616860
H       -2.0567969048    0.0614194764   -1.0327557965
H       -0.8796038703    2.2940681268   -0.1010218226
C       -1.0236228842   -0.0186768782    1.0332179318
H       -1.6961382262   -0.0584721693    1.8800160683
13   
Frame   9 IRC: Energy =  -286.8650290912 ; +7.2194 kcal/mol
C        1.6978482731    0.2798994694   -0.3461008243
C        1.1210016603   -0.9606986879   -0.1370612628
C       -0.3207395321   -1.0071418089    0.1620617360
C       -1.1892130114    0.1071729137   -0.4400521464
C       -0.3799870168    1.2978845994   -0.0844754140
N        1.0010213318    1.4203707911   -0.2724994846
H        2.7607495337    0.3747041603   -0.5548056728
H        1.6987631902   -1.8756134627   -0.2194383121
H       -0.7781094067   -1.9959390036    0.1788602716
H       -2.0725031124    0.0491508276   -1.0535572293
H       -0.8851580579    2.2677175501   -0.0749134089
C       -0.9846004443    0.0698477453    0.9953715614
H       -1.6690734074   -0.0273550938    1.8466101863
13   
Frame  10 IRC: Energy =  -286.8762543493 ; +0.1755 kcal/mol
C        1.6996028615    0.2871302406   -0.3372723579
C        1.1168952852   -0.9657392887   -0.1398493985
C       -0.3294196827   -1.0021864030    0.1340844879
C       -1.1919348908    0.0812509685   -0.4868568325
C       -0.4007616653    1.2559515839    0.0163403998
N        0.9990373240    1.4098786105   -0.2682636877
H        2.7632639736    0.3764165477   -0.5558958970
H        1.6955748515   -1.8802509850   -0.2169927176
H       -0.7873542597   -1.9866312872    0.2030091572
H       -2.0935969527    0.0355340298   -1.0757835949
H       -0.8991173145    2.2247263142   -0.0306865244
C       -0.9470813808    0.1353262464    0.9553629633
H       -1.6251081491    0.0285934222    1.8028040024
13   
Frame  11 IRC: Energy =  -286.8794400000 ; -1.8235 kcal/mol
C        1.6972968151    0.2857779795   -0.3293902075
C        1.1156163233   -0.9746863696   -0.1579400852
C       -0.3344249395   -1.0124754746    0.1093224141
C       -1.1935581559    0.0708540174   -0.5278534516
C       -0.4017701500    1.2410499860    0.0194188745
N        0.9971024879    1.4088652819   -0.2503268309
H        2.7616493263    0.3843098740   -0.5399281754
H        1.6985142330   -1.8883326426   -0.2169491222
H       -0.7991976302   -1.9874999512    0.2381869846
H       -2.1047485443    0.0151375592   -1.1073357752
H       -0.9309030126    2.1898026368    0.0673017701
C       -0.9292891026    0.1350830954    0.9143360449
H       -1.5762876505    0.1321140076    1.7811575598
