13   
From qcts1.out: Frame 18 / 18, Energy=    -286.8326738322
C        1.6917362522    0.2657981114   -0.3552222209
C        1.1310675780   -0.9498175329   -0.1313621591
C       -0.3164614713   -1.0122227948    0.1827681099
C       -1.1777378607    0.1323401459   -0.3993666369
C       -0.3419715029    1.3532873916   -0.2298621949
N        0.9807019667    1.4392645318   -0.2699596230
H        2.7529700091    0.3783008357   -0.5659769162
H        1.7044984842   -1.8683434564   -0.2121174089
H       -0.7692949242   -2.0045250748    0.1675772202
H       -2.0550863674    0.0500067362   -1.0371879099
H       -0.8853429597    2.2914317079   -0.1162371464
C       -1.0295971159   -0.0240665924    1.0325937935
H       -1.7047179366   -0.0616957599    1.8761375256
