13   
From optimize.out: Frame 2 / 3, Energy=    -286.8249551859
C        1.3118553965    0.3025645483    0.2420680501
C        0.6068016140   -1.0007437408   -0.1830377253
C       -0.6883432701   -0.4654887350   -0.8439833543
C       -1.0780816294    0.1914248105    0.4506992150
C       -0.5189778790    1.0592796455   -0.6927874810
N        0.8291126319    1.4230372465   -0.4714120611
H        2.3483758206    0.2894064774    0.5607696643
H        1.1233254710   -1.9344691093   -0.3753888304
H       -1.2958121827   -0.9367535784   -1.6085309573
H       -2.0520569287    0.3366788924    0.9044507955
H       -1.1651298397    1.7418607690   -1.2337022453
C        0.2167204484   -0.3451412793    1.1120381956
H        0.3622103476   -0.6616559464    2.1388167342
13   
From optimize.out: Frame 1 / 2, Energy=    -286.8516502831
C        1.5112798226    0.4411874797   -0.1333489374
C        0.6763030072   -0.8531720431   -0.0651134598
C       -0.2806988120   -0.4770748989   -1.1996092507
C       -1.0849685920    0.4078340412    0.7580059451
C       -0.5929735257    0.8947503755   -0.6140878017
N        0.8084819660    1.4610741319   -0.4398073906
H        2.5777348701    0.5068071411    0.0758162693
H        1.2123103143   -1.8019708848   -0.0914357383
H       -1.0445361797   -1.1594329026   -1.5688383679
H       -1.8796206543    0.8694122942    1.3338757905
H       -1.2396863957    1.5838799695   -1.1550399084
C       -0.3197753656   -0.6435755800    1.0936728013
H       -0.3438504550   -1.2297191237    2.0059100486
