13   
Frame   0 IRC: Energy =  -286.8454180000 ; +0.0000 kcal/mol
C        1.3151027935    0.3012423683    0.2424793701
C        0.6079990778   -0.9997781248   -0.1847108476
C       -0.6875713792   -0.4639940429   -0.8464339154
C       -1.0789587822    0.1903151535    0.4517509954
C       -0.5226497535    1.0618203701   -0.6902516796
N        0.8259611950    1.4212460917   -0.4674647155
H        2.3529844647    0.2887903507    0.5534157019
H        1.1207086068   -1.9358306930   -0.3734148954
H       -1.2903210865   -0.9334979978   -1.6148359459
H       -2.0530641835    0.3350704327    0.9041662727
H       -1.1691861356    1.7472428380   -1.2252741464
C        0.2171878551   -0.3458057880    1.1129540776
H        0.3618073278   -0.6668209588    2.1376197284
13   
Frame   1 IRC: Energy =  -286.8454100000 ; +0.0050 kcal/mol
C        1.3152612480    0.3012297768    0.2422299859
C        0.6081657006   -0.9997728468   -0.1842213869
C       -0.6873804561   -0.4639655129   -0.8464610991
C       -1.0791419595    0.1902509470    0.4516325050
C       -0.5228573827    1.0619182244   -0.6898743971
N        0.8258526386    1.4214748535   -0.4673245639
H        2.3540272668    0.2885080293    0.5505592017
H        1.1203585048   -1.9359415169   -0.3715407862
H       -1.2889484482   -0.9338068437   -1.6156723470
H       -2.0533868159    0.3351886566    0.9033647392
H       -1.1697759465    1.7478226928   -1.2236491177
C        0.2171990828   -0.3455503899    1.1130185153
H        0.3606265675   -0.6673560700    2.1379387508
13   
Frame   2 IRC: Energy =  -286.8454050000 ; +0.0082 kcal/mol
C        1.3155180370    0.3013222855    0.2420826842
C        0.6079497712   -0.9994700999   -0.1841055504
C       -0.6872034735   -0.4641015588   -0.8465416109
C       -1.0790574003    0.1901964648    0.4515830157
C       -0.5228361983    1.0619920274   -0.6896602040
N        0.8257095076    1.4214932010   -0.4672335130
H        2.3544799086    0.2883692499    0.5491104874
H        1.1203145200   -1.9362072401   -0.3706595547
H       -1.2882558899   -0.9339489437   -1.6160459410
H       -2.0536486597    0.3352638891    0.9029966854
H       -1.1701011631    1.7481462200   -1.2228763286
C        0.2171240267   -0.3454934123    1.1134230535
H        0.3600070138   -0.6675620827    2.1379267765
13   
Frame   3 IRC: Energy =  -286.8453890000 ; +0.0182 kcal/mol
C        1.3156530423    0.3013048266    0.2417541888
C        0.6081738078   -0.9994661908   -0.1834027037
C       -0.6869229988   -0.4641121216   -0.8465518772
C       -1.0793229280    0.1900992349    0.4514922523
C       -0.5230744091    1.0621299913   -0.6891256901
N        0.8255432416    1.4217831404   -0.4669182809
H        2.3560056111    0.2880798386    0.5450437025
H        1.1198721205   -1.9363045499   -0.3683435489
H       -1.2864139358   -0.9344627863   -1.6170322672
H       -2.0541587666    0.3354901782    0.9017683690
H       -1.1707725009    1.7489523318   -1.2207223465
C        0.2171181822   -0.3451806709    1.1135392487
H        0.3582995336   -0.6683132224    2.1384989532
13   
Frame   4 IRC: Energy =  -286.8453780000 ; +0.0251 kcal/mol
C        1.3161249780    0.3014271791    0.2415918071
C        0.6078944103   -0.9991190971   -0.1832297665
C       -0.6866687751   -0.4642698665   -0.8465943909
C       -1.0792177389    0.1900131075    0.4513819702
C       -0.5230743159    1.0622132570   -0.6888043617
N        0.8253209376    1.4218364517   -0.4667334485
H        2.3566438844    0.2879405362    0.5428059014
H        1.1198014979   -1.9366212169   -0.3671798355
H       -1.2854287293   -0.9347296388   -1.6175162680
H       -2.0545833908    0.3356396604    0.9011611097
H       -1.1711575205    1.7494274954   -1.2196214608
C        0.2170020117   -0.3451440172    1.1142072838
H        0.3573427505   -0.6686138507    2.1385314596
13   
Frame   5 IRC: Energy =  -286.8453450000 ; +0.0458 kcal/mol
C        1.3161949553    0.3013533913    0.2411726975
C        0.6081572373   -0.9990602540   -0.1821865108
C       -0.6862790345   -0.4643786677   -0.8465628178
C       -1.0796107703    0.1898382357    0.4513593630
C       -0.5233275631    1.0623746744   -0.6880080957
N        0.8250433556    1.4221908219   -0.4660913543
H        2.3588785201    0.2877945615    0.5369440800
H        1.1192528225   -1.9367651121   -0.3643814008
H       -1.2829429366   -0.9355240677   -1.6186802486
H       -2.0554099500    0.3360722496    0.8992771856
H       -1.1718318675    1.7505634910   -1.2167876959
C        0.2169894790   -0.3448190228    1.1144183888
H        0.3548857522   -0.6696403012    2.1395264090
13   
Frame   6 IRC: Energy =  -286.8453220000 ; +0.0602 kcal/mol
C        1.3169615152    0.3015051703    0.2410180012
C        0.6078375051   -0.9987823062   -0.1820050682
C       -0.6859465489   -0.4645591099   -0.8465280663
C       -1.0795173691    0.1896869494    0.4511940576
C       -0.5233708240    1.0624758405   -0.6875370759
N        0.8247067843    1.4222475967   -0.4657062243
H        2.3597661478    0.2877622206    0.5335862370
H        1.1191246765   -1.9371046657   -0.3629222125
H       -1.2815795021   -0.9359649890   -1.6192866124
H       -2.0560772641    0.3363597860    0.8983028643
H       -1.1722045995    1.7512309670   -1.2152849610
C        0.2168273361   -0.3448042495    1.1154900517
H        0.3534721428   -0.6700532102    2.1396790089
13   
Frame   7 IRC: Energy =  -286.8452530000 ; +0.1035 kcal/mol
C        1.3170000249    0.3013476129    0.2403812724
C        0.6081222961   -0.9986619745   -0.1803059875
C       -0.6853462077   -0.4649235506   -0.8463271765
C       -1.0801544803    0.1893531516    0.4512884621
C       -0.5236119173    1.0625482522   -0.6862914184
N        0.8241778373    1.4227399281   -0.4644755787
H        2.3630348722    0.2881020582    0.5249940823
H        1.1184755757   -1.9374492656   -0.3596845614
H       -1.2782040728   -0.9370915162   -1.6206445042
H       -2.0575278371    0.3372111331    0.8954411815
H       -1.1726015388    1.7528714610   -1.2115351595
C        0.2167048932   -0.3446460426    1.1158538710
H        0.3499305547   -0.6714012475    2.1413055171
13   
Frame   8 IRC: Energy =  -286.8452030000 ; +0.1349 kcal/mol
C        1.3182422280    0.3018540192    0.2399832866
C        0.6077653062   -0.9987004731   -0.1798616761
C       -0.6848145871   -0.4654189280   -0.8460680658
C       -1.0802546403    0.1892686662    0.4509307926
C       -0.5237615034    1.0625842309   -0.6855432070
N        0.8235707230    1.4229914268   -0.4638034699
H        2.3644348973    0.2883379838    0.5199929986
H        1.1182446320   -1.9378502662   -0.3579908466
H       -1.2762711081   -0.9376370329   -1.6212817143
H       -2.0585352865    0.3377523570    0.8939152818
H       -1.1726683254    1.7538071464   -1.2094128847
C        0.2161428537   -0.3450236562    1.1174139112
H        0.3479048105   -0.6719654740    2.1417255937
13   
Frame   9 IRC: Energy =  -286.8450070000 ; +0.2579 kcal/mol
C        1.3198993614    0.2995712313    0.2380512329
C        0.6076197713   -0.9984107488   -0.1784863211
C       -0.6849816810   -0.4652040442   -0.8455677524
C       -1.0825027717    0.1889648609    0.4523256457
C       -0.5239543631    1.0629902168   -0.6807274525
N        0.8237601244    1.4223233782   -0.4601104221
H        2.3714420764    0.2916738903    0.5054156519
H        1.1182107530   -1.9381714348   -0.3533935795
H       -1.2708601507   -0.9407349170   -1.6234223061
H       -2.0638956073    0.3400117098    0.8891072453
H       -1.1718599616    1.7551509836   -1.2038406217
C        0.2157450105   -0.3454511710    1.1172548638
H        0.3413774384   -0.6727139552    2.1433938159
13   
Frame  10 IRC: Energy =  -286.8445480000 ; +0.5459 kcal/mol
C        1.3292475097    0.2961515717    0.2237692711
C        0.6064356885   -0.9968313401   -0.1768023017
C       -0.6839593950   -0.4633727758   -0.8471068211
C       -1.0875086782    0.1892210312    0.4530696604
C       -0.5242059399    1.0632215285   -0.6736502399
N        0.8253898740    1.4225874664   -0.4556622187
H        2.3810996595    0.2973663286    0.4943113843
H        1.1180656762   -1.9345043521   -0.3479156689
H       -1.2660294991   -0.9445422841   -1.6240537459
H       -2.0723400754    0.3430198327    0.8864543930
H       -1.1697291931    1.7540669671   -1.1987125228
C        0.2084231598   -0.3539351458    1.1187347423
H        0.3351112130   -0.6724488283    2.1475640678
13   
Frame  11 IRC: Energy =  -286.8419200000 ; +2.1950 kcal/mol
C        1.3527476325    0.2983331111    0.1770761961
C        0.6084355965   -0.9878275992   -0.1664346206
C       -0.6811873825   -0.4599350327   -0.8496456266
C       -1.0954983309    0.1905249710    0.4558937984
C       -0.5235330449    1.0601969478   -0.6657538467
N        0.8311901905    1.4248384350   -0.4471757578
H        2.3953847094    0.3051845173    0.4868466487
H        1.1170845197   -1.9259321070   -0.3408514491
H       -1.2616453619   -0.9487583200   -1.6229024759
H       -2.0813388723    0.3466793459    0.8851884092
H       -1.1664440413    1.7513361702   -1.1933080975
C        0.1752518788   -0.3826561604    1.1224780284
H        0.3295525063   -0.6719842789    2.1585887935
13   
Frame  12 IRC: Energy =  -286.8383890000 ; +4.4108 kcal/mol
C        1.3779160971    0.3074628166    0.1284624019
C        0.6113302039   -0.9773447418   -0.1563208743
C       -0.6782021927   -0.4575099326   -0.8513603843
C       -1.1006731955    0.1915346488    0.4596323972
C       -0.5222886534    1.0562457542   -0.6617086070
N        0.8377404267    1.4245683417   -0.4378082435
H        2.4039106117    0.3105403717    0.4832663315
H        1.1163372849   -1.9191285569   -0.3357885017
H       -1.2591637403   -0.9512654818   -1.6212950805
H       -2.0864100197    0.3493129060    0.8848433439
H       -1.1643485880    1.7493070841   -1.1898832643
C        0.1374956087   -0.4125287034    1.1308501515
H        0.3263561566   -0.6711945067    2.1671103294
13   
Frame  13 IRC: Energy =  -286.8367420000 ; +5.4443 kcal/mol (Transition State)
C        1.4021302998    0.3179334944    0.0805639302
C        0.6156830363   -0.9652516987   -0.1471810211
C       -0.6750199521   -0.4549799437   -0.8522294721
C       -1.1043873584    0.1907411606    0.4650900809
C       -0.5196347093    1.0519618193   -0.6604358371
N        0.8443503197    1.4233719872   -0.4283134470
H        2.4099631867    0.3151894723    0.4797690662
H        1.1153160558   -1.9128954723   -0.3311043660
H       -1.2571127269   -0.9528897604   -1.6193623742
H       -2.0902834696    0.3519972911    0.8845391298
H       -1.1627179166    1.7476632723   -1.1869151103
C        0.0980498788   -0.4428360555    1.1410282093
H        0.3236633558   -0.6700055665    2.1745512114
13   
Frame  14 IRC: Energy =  -286.8384750000 ; +4.3568 kcal/mol
C        1.4261542671    0.3278137499    0.0332114519
C        0.6204345323   -0.9524969537   -0.1386307255
C       -0.6716144053   -0.4523710098   -0.8527986692
C       -1.1077146982    0.1891663997    0.4713413529
C       -0.5163026541    1.0478413980   -0.6600137852
N        0.8505713108    1.4224838994   -0.4191396064
H        2.4156227503    0.3198269737    0.4759736426
H        1.1142207504   -1.9067898880   -0.3263721495
H       -1.2551446496   -0.9543786960   -1.6174143428
H       -2.0941116644    0.3548162243    0.8841998579
H       -1.1611244094    1.7460529141   -1.1839552352
C        0.0581237025   -0.4734223816    1.1521918847
H        0.3208851679   -0.6685426300    2.1814063237
13   
Frame  15 IRC: Energy =  -286.8426470000 ; +1.7388 kcal/mol
C        1.4489238854    0.3355552343   -0.0115578499
C        0.6264696250   -0.9385863823   -0.1309366484
C       -0.6676496879   -0.4489636776   -0.8526161113
C       -1.1109581511    0.1851743502    0.4790918786
C       -0.5114600386    1.0439009510   -0.6610643728
N        0.8561098432    1.4226943612   -0.4115575840
H        2.4213718790    0.3250363579    0.4701035721
H        1.1125214807   -1.9000124736   -0.3210865777
H       -1.2527466661   -0.9552605042   -1.6149384497
H       -2.0983472075    0.3584848171    0.8834752855
H       -1.1593859991    1.7444253840   -1.1805711256
C        0.0175399032   -0.5063354698    1.1635031939
H        0.3176111339   -0.6661129481    2.1881547893
13   
Frame  16 IRC: Energy =  -286.8472980000 ; -1.1797 kcal/mol
C        1.4704142374    0.3398551571   -0.0501605742
C        0.6319911061   -0.9254596867   -0.1228294701
C       -0.6626355876   -0.4444827495   -0.8519540429
C       -1.1159199987    0.1785488226    0.4866390153
C       -0.5058749349    1.0407107836   -0.6607247993
N        0.8609613801    1.4249761452   -0.4077435702
H        2.4303237833    0.3323877591    0.4585608855
H        1.1103250125   -1.8911715352   -0.3145430955
H       -1.2485994533   -0.9554671368   -1.6115210662
H       -2.1046069658    0.3640530775    0.8816225271
H       -1.1568889636    1.7424227470   -1.1754603748
C       -0.0216576441   -0.5447860414    1.1732098616
H        0.3121680286   -0.6615873425    2.1949047036
13   
Frame  17 IRC: Energy =  -286.8509970000 ; -3.5009 kcal/mol
C        1.4899171198    0.3455717557   -0.0839999860
C        0.6367136334   -0.9136123751   -0.1146977471
C       -0.6578562169   -0.4395865727   -0.8513024566
C       -1.1213221482    0.1705729119    0.4939817828
C       -0.5005761141    1.0373009747   -0.6589906347
N        0.8669893953    1.4250626055   -0.4045692813
H        2.4411602325    0.3406064829    0.4427145232
H        1.1086904662   -1.8825923230   -0.3079692060
H       -1.2432072003   -0.9552077007   -1.6080297906
H       -2.1114978517    0.3702960300    0.8786622821
H       -1.1543956619    1.7407557397   -1.1691527163
C       -0.0600097421   -0.5827433295    1.1817399265
H        0.3053940879   -0.6564241993    2.2016133041
13   
Frame  18 IRC: Energy =  -286.8534410000 ; -5.0345 kcal/mol
C        1.5031042207    0.3437552792   -0.1040142724
C        0.6396378034   -0.9053277937   -0.1056708837
C       -0.6518561067   -0.4349065525   -0.8489260019
C       -1.1297673792    0.1589542709    0.5002428456
C       -0.4942594370    1.0364850762   -0.6545700131
N        0.8708921240    1.4290424817   -0.4074524768
H        2.4592931660    0.3515848272    0.4168552645
H        1.1073564402   -1.8725994347   -0.3002447161
H       -1.2353384102   -0.9543997262   -1.6048918598
H       -2.1210009225    0.3786204680    0.8732783906
H       -1.1509782762    1.7389252558   -1.1591866870
C       -0.0896973001   -0.6204011023    1.1889651145
H        0.2926140776   -0.6497330496    2.2056152955
13   
Frame  19 IRC: Energy =  -286.8540770000 ; -5.4336 kcal/mol
C        1.5057328182    0.3475251221   -0.1059560111
C        0.6394594157   -0.9041072109   -0.1028461376
C       -0.6511321306   -0.4336133582   -0.8483214662
C       -1.1318421632    0.1542570384    0.5018067533
C       -0.4930710632    1.0353391620   -0.6516153266
N        0.8742714090    1.4256277115   -0.4075765207
H        2.4661276469    0.3550345635    0.4039543056
H        1.1081224512   -1.8711087633   -0.2981941965
H       -1.2314782308   -0.9536211007   -1.6044213144
H       -2.1242617426    0.3810826636    0.8703974878
H       -1.1504465628    1.7393066241   -1.1547187535
C       -0.0982549367   -0.6270704186    1.1897954212
H        0.2867730888   -0.6486520335    2.2076957589
13   
Frame  20 IRC: Energy =  -286.8555700000 ; -6.3705 kcal/mol
C        1.5113564788    0.3441284903   -0.1114632238
C        0.6414876645   -0.9007661110   -0.0929099760
C       -0.6469031078   -0.4310784885   -0.8450581587
C       -1.1416136022    0.1437186594    0.5046740182
C       -0.4894740653    1.0345444834   -0.6447029112
N        0.8765792920    1.4275011435   -0.4101397492
H        2.4921012415    0.3649036375    0.3650105016
H        1.1097596014   -1.8662357036   -0.2909471641
H       -1.2209835554   -0.9525886840   -1.6054298759
H       -2.1334755014    0.3879241123    0.8611390639
H       -1.1479355257    1.7397575983   -1.1397128829
C       -0.1175284684   -0.6461807989    1.1967891085
H        0.2666295479   -0.6456283387    2.2127512495
13   
Frame  21 IRC: Energy =  -286.8558370000 ; -6.5380 kcal/mol
C        1.5134344622    0.3471671244   -0.1117365090
C        0.6411127681   -0.9006236935   -0.0911720739
C       -0.6467834079   -0.4311128414   -0.8449542968
C       -1.1418807074    0.1420400774    0.5048908646
C       -0.4891008928    1.0339314536   -0.6429955710
N        0.8780596167    1.4248037404   -0.4092060953
H        2.4950374521    0.3657122568    0.3566342448
H        1.1102706010   -1.8660027817   -0.2895461824
H       -1.2186455830   -0.9521782139   -1.6060166462
H       -2.1355061591    0.3884236408    0.8594074394
H       -1.1483214246    1.7406520242   -1.1370822760
C       -0.1204459586   -0.6468006361    1.1966462046
H        0.2627692333   -0.6460121509    2.2151308972
13   
Frame  22 IRC: Energy =  -286.8571200000 ; -7.3431 kcal/mol
C        1.5186165374    0.3457155309   -0.1160764485
C        0.6435841804   -0.8982127388   -0.0802415637
C       -0.6427680298   -0.4306865223   -0.8419998734
C       -1.1505466430    0.1352523407    0.5056454451
C       -0.4877150012    1.0328010876   -0.6346779863
N        0.8798456392    1.4249314011   -0.4078254800
H        2.5231695727    0.3713267196    0.3060181784
H        1.1124357985   -1.8638255297   -0.2788057064
H       -1.2052805769   -0.9512621839   -1.6112240395
H       -2.1453100643    0.3909478348    0.8475543814
H       -1.1481580725    1.7439672637   -1.1188551728
C       -0.1334601973   -0.6531825452    1.2043819040
H        0.2355868568   -0.6477726585    2.2261063617
13   
Frame  23 IRC: Energy =  -286.8573280000 ; -7.4736 kcal/mol
C        1.5209733040    0.3477798228   -0.1171980901
C        0.6435901760   -0.8978253152   -0.0783959801
C       -0.6422988328   -0.4305101305   -0.8417456470
C       -1.1503369238    0.1339522686    0.5058547622
C       -0.4873348478    1.0330115481   -0.6327323134
N        0.8804636568    1.4235400806   -0.4073069449
H        2.5260807417    0.3712435864    0.2963915421
H        1.1126278026   -1.8635383345   -0.2761033619
H       -1.2023412093   -0.9508335365   -1.6120276141
H       -2.1475496892    0.3904393067    0.8457057379
H       -1.1485341738    1.7447537900   -1.1159601588
C       -0.1360000565   -0.6531957405    1.2043248148
H        0.2306600522   -0.6488173460    2.2291932534
13   
Frame  24 IRC: Energy =  -286.8581300000 ; -7.9769 kcal/mol
C        1.5233954136    0.3469552253   -0.1247574855
C        0.6464748305   -0.8944446502   -0.0699307385
C       -0.6379430883   -0.4289114175   -0.8388006463
C       -1.1554219676    0.1305459315    0.5065295465
C       -0.4872228132    1.0339627947   -0.6256082361
N        0.8823768419    1.4256021178   -0.4070344804
H        2.5473134912    0.3716431791    0.2530883281
H        1.1131993001   -1.8621995839   -0.2624939091
H       -1.1895241162   -0.9495257097   -1.6164749266
H       -2.1554576531    0.3873180910    0.8365915621
H       -1.1490712652    1.7475515540   -1.1017025064
C       -0.1437933202   -0.6547617733    1.2106193847
H        0.2056743464   -0.6537357588    2.2399741074
13   
Frame  25 IRC: Energy =  -286.8582280000 ; -8.0384 kcal/mol
C        1.5260117981    0.3484332058   -0.1248440998
C        0.6462964155   -0.8941816968   -0.0689228679
C       -0.6378444593   -0.4288871102   -0.8388222082
C       -1.1559297574    0.1301203884    0.5067944038
C       -0.4865313048    1.0339342803   -0.6244543539
N        0.8826246410    1.4246118396   -0.4070823599
H        2.5479617489    0.3714629851    0.2474250255
H        1.1133475688   -1.8620212001   -0.2607958566
H       -1.1877762995   -0.9490839333   -1.6167319393
H       -2.1564432299    0.3865896814    0.8356522824
H       -1.1495708313    1.7482792530   -1.1004673033
C       -0.1449626734   -0.6545385229    1.2107921747
H        0.2028163834   -0.6547191702    2.2414571024
13   
Frame  26 IRC: Energy =  -286.8588850000 ; -8.4507 kcal/mol
C        1.5305086442    0.3481952975   -0.1320534573
C        0.6496054113   -0.8895933375   -0.0582730699
C       -0.6331440927   -0.4265908309   -0.8348517338
C       -1.1613664578    0.1267981856    0.5077744884
C       -0.4856695496    1.0360224394   -0.6171412656
N        0.8854625850    1.4264988572   -0.4089737220
H        2.5698296167    0.3711592944    0.1959308333
H        1.1139939295   -1.8600262169   -0.2431352240
H       -1.1725654329   -0.9462770301   -1.6211435337
H       -2.1662403617    0.3800063564    0.8268237956
H       -1.1502589595    1.7519970135   -1.0858957028
C       -0.1536452434   -0.6540559142    1.2172845069
H        0.1734899110   -0.6641341144    2.2536540850
13   
Frame  27 IRC: Energy =  -286.8589240000 ; -8.4752 kcal/mol
C        1.5320702720    0.3495995900   -0.1326150091
C        0.6493111422   -0.8895297682   -0.0577065511
C       -0.6330473463   -0.4264569797   -0.8349422862
C       -1.1616059169    0.1266613334    0.5080336271
C       -0.4852770072    1.0358328702   -0.6163977114
N        0.8857653412    1.4257907956   -0.4089202431
H        2.5699464981    0.3710258272    0.1927512770
H        1.1141196408   -1.8598744115   -0.2420070650
H       -1.1715826919   -0.9459832604   -1.6212020818
H       -2.1667845723    0.3794682673    0.8263275900
H       -1.1504773227    1.7524827960   -1.0854168258
C       -0.1542317158   -0.6540172997    1.2174353257
H        0.1717936786   -0.6649997601    2.2546599538
13   
Frame  28 IRC: Energy =  -286.8592960000 ; -8.7086 kcal/mol
C        1.5373212929    0.3516512978   -0.1441321277
C        0.6520427977   -0.8845203729   -0.0476858629
C       -0.6282258464   -0.4238037777   -0.8309895059
C       -1.1658157828    0.1248989161    0.5103270264
C       -0.4846890261    1.0381163521   -0.6085764858
N        0.8885610521    1.4286798713   -0.4113828978
H        2.5880798781    0.3705317116    0.1424620470
H        1.1152521039   -1.8573627684   -0.2223114925
H       -1.1572246716   -0.9426743002   -1.6243348696
H       -2.1761217399    0.3714221342    0.8184175552
H       -1.1493253429    1.7561990710   -1.0745535665
C       -0.1618037668   -0.6539719376    1.2244271278
H        0.1419490519   -0.6791661972    2.2683330524
13   
Frame  29 IRC: Energy =  -286.8593080000 ; -8.7161 kcal/mol
C        1.5380319596    0.3519365961   -0.1433246913
C        0.6524317237   -0.8843313772   -0.0472626820
C       -0.6283798424   -0.4237394530   -0.8306085342
C       -1.1660648258    0.1247189716    0.5103119401
C       -0.4843061702    1.0382069402   -0.6083542470
N        0.8887414654    1.4280071382   -0.4117200703
H        2.5880611276    0.3706053364    0.1405020100
H        1.1153406744   -1.8572258149   -0.2218402078
H       -1.1567533757   -0.9424475923   -1.6242445897
H       -2.1763233902    0.3711803391    0.8182585100
H       -1.1496312869    1.7564541948   -1.0743787480
C       -0.1619867636   -0.6533481406    1.2243190870
H        0.1408387042   -0.6800171382    2.2683422234
13   
Frame  30 IRC: Energy =  -286.8593520000 ; -8.7437 kcal/mol
C        1.5383624889    0.3519505719   -0.1419299117
C        0.6536123005   -0.8832414192   -0.0441835028
C       -0.6276403064   -0.4230736658   -0.8289064242
C       -1.1672672163    0.1242545163    0.5103918686
C       -0.4837567847    1.0390009520   -0.6080461692
N        0.8898459452    1.4274425359   -0.4134698150
H        2.5922393866    0.3712052657    0.1290938591
H        1.1160768265   -1.8564265749   -0.2182600865
H       -1.1539935200   -0.9413831887   -1.6238680205
H       -2.1780411758    0.3697485611    0.8173243255
H       -1.1501197590    1.7571220881   -1.0725708974
C       -0.1628832379   -0.6510756748    1.2249526115
H        0.1335650523   -0.6855239677    2.2694721627
13   
Frame  31 IRC: Energy =  -286.8593600000 ; -8.7487 kcal/mol
C        1.5391945113    0.3523073884   -0.1430328344
C        0.6533388224   -0.8831424765   -0.0440607620
C       -0.6273500442   -0.4229953925   -0.8291466727
C       -1.1672210811    0.1245373095    0.5105773446
C       -0.4837070792    1.0388874205   -0.6077932397
N        0.8896746664    1.4279529669   -0.4134084197
H        2.5924397704    0.3711489016    0.1280448793
H        1.1161823659   -1.8563346875   -0.2176335141
H       -1.1537728450   -0.9414814563   -1.6239181759
H       -2.1782702579    0.3696154212    0.8171836076
H       -1.1500223971    1.7572076643   -1.0724962703
C       -0.1633137023   -0.6515364259    1.2253537431
H        0.1328272702   -0.6861666336    2.2703303143
13   
Frame  32 IRC: Energy =  -286.8593730000 ; -8.7569 kcal/mol
C        1.5394129235    0.3526702110   -0.1450763571
C        0.6537076792   -0.8825794798   -0.0436230786
C       -0.6269018748   -0.4228405032   -0.8290227041
C       -1.1672136115    0.1248862007    0.5109219705
C       -0.4838073852    1.0391206062   -0.6072162968
N        0.8898611290    1.4286688532   -0.4135137394
H        2.5936375379    0.3712048225    0.1251073872
H        1.1163188054   -1.8560006259   -0.2160862406
H       -1.1531401296   -0.9416300291   -1.6240192766
H       -2.1787395134    0.3693322245    0.8167674849
H       -1.1497124165    1.7572599897   -1.0721578595
C       -0.1640404484   -0.6521591888    1.2261057047
H        0.1306173044   -0.6879330810    2.2718130055
13   
Frame  33 IRC: Energy =  -286.8593780000 ; -8.7600 kcal/mol
C        1.5399438148    0.3529583201   -0.1451264635
C        0.6537525360   -0.8823985462   -0.0432793061
C       -0.6268534043   -0.4227333271   -0.8287900448
C       -1.1673102046    0.1248180057    0.5110431169
C       -0.4836618326    1.0391546391   -0.6069043481
N        0.8899445748    1.4285275842   -0.4137757764
H        2.5938235090    0.3712922452    0.1234217344
H        1.1164556405   -1.8558441573   -0.2154688358
H       -1.1526922001   -0.9415322133   -1.6238907868
H       -2.1789045754    0.3691948716    0.8165500575
H       -1.1497677926    1.7574144670   -1.0720299869
C       -0.1641301202   -0.6519721705    1.2261622734
H        0.1294000546   -0.6888797185    2.2720883663
13   
Frame  34 IRC: Energy =  -286.8593870000 ; -8.7657 kcal/mol
C        1.5399226648    0.3529130599   -0.1456422617
C        0.6540824158   -0.8820529661   -0.0426704549
C       -0.6265533758   -0.4225651761   -0.8284223379
C       -1.1674418087    0.1248720466    0.5112100066
C       -0.4836823012    1.0393882579   -0.6066914751
N        0.8900827698    1.4288733244   -0.4141940402
H        2.5949425795    0.3714769284    0.1206912368
H        1.1166662545   -1.8555845241   -0.2143714037
H       -1.1520364185   -0.9414457355   -1.6237464980
H       -2.1792615094    0.3689890170    0.8162622261
H       -1.1496536594    1.7574864915   -1.0716618940
C       -0.1644192463   -0.6517858226    1.2265072728
H        0.1273516350   -0.6905649013    2.2727296231
13   
Frame  35 IRC: Energy =  -286.8593930000 ; -8.7695 kcal/mol
C        1.5404481069    0.3533039863   -0.1459713907
C        0.6541557698   -0.8818156118   -0.0422716360
C       -0.6263990369   -0.4224625202   -0.8282597536
C       -1.1675337861    0.1249516880    0.5113350496
C       -0.4835393717    1.0394290617   -0.6064620589
N        0.8902065643    1.4288125494   -0.4144075682
H        2.5952945101    0.3715749375    0.1188188954
H        1.1168405453   -1.8554293134   -0.2136583156
H       -1.1516095290   -0.9414060931   -1.6236447970
H       -2.1794905964    0.3688445792    0.8160856865
H       -1.1497112826    1.7576362622   -1.0715013955
C       -0.1646605617   -0.6516902820    1.2267076423
H        0.1259986679   -0.6917492440    2.2732296417
