13   
From optimize.out: Frame 1 / 2, Energy=    -286.8516502831
C        1.5112798226    0.4411874797   -0.1333489374
C        0.6763030072   -0.8531720431   -0.0651134598
C       -0.2806988120   -0.4770748989   -1.1996092507
C       -1.0849685920    0.4078340412    0.7580059451
C       -0.5929735257    0.8947503755   -0.6140878017
N        0.8084819660    1.4610741319   -0.4398073906
H        2.5777348701    0.5068071411    0.0758162693
H        1.2123103143   -1.8019708848   -0.0914357383
H       -1.0445361797   -1.1594329026   -1.5688383679
H       -1.8796206543    0.8694122942    1.3338757905
H       -1.2396863957    1.5838799695   -1.1550399084
C       -0.3197753656   -0.6435755800    1.0936728013
H       -0.3438504550   -1.2297191237    2.0059100486
