13   
From qcopt_rct.out: Frame 2 / 2, Energy=    -286.8249557164
C        1.3119832026    0.3024639842    0.2418450666
C        0.6067813895   -1.0007324541   -0.1827277502
C       -0.6879962090   -0.4652710104   -0.8442673523
C       -1.0782594737    0.1910344549    0.4506508298
C       -0.5191779217    1.0594042307   -0.6924931429
N        0.8290508102    1.4231658196   -0.4713972156
H        2.3485696173    0.2892655803    0.5603271076
H        1.1221951757   -1.9351789616   -0.3745474573
H       -1.2950975532   -0.9364177124   -1.6091722851
H       -2.0524462795    0.3360300536    0.9040256583
H       -1.1654104444    1.7420801816   -1.2331782201
C        0.2167898071   -0.3445443101    1.1121710373
H        0.3630178796   -0.6612998559    2.1387637239
13   
From qcopt_prd.out: Frame 4 / 4, Energy=    -286.8516529382
C        1.5118584255    0.4410083134   -0.1341162498
C        0.6769449981   -0.8533214754   -0.0641303673
C       -0.2815298246   -0.4771797739   -1.1988780254
C       -1.0851578665    0.4076680084    0.7574471669
C       -0.5921140648    0.8950345211   -0.6144649768
N        0.8087694981    1.4610701433   -0.4397673780
H        2.5781980340    0.5069451851    0.0754034969
H        1.2132738690   -1.8019432397   -0.0910525739
H       -1.0465140050   -1.1584929116   -1.5679718807
H       -1.8811071954    0.8674935872    1.3328436099
H       -1.2390329299    1.5844816635   -1.1548326890
C       -0.3196676418   -0.6430114166    1.0938769909
H       -0.3439212965   -1.2297526047    2.0056428765
