13   
From optimize.out: Frame 1 / 2, Energy=    -286.8383285947
C        1.1817828783    0.3161562440    0.4225127178
C        0.6604438687   -1.0911913473   -0.1223988077
C       -0.5670361437   -0.9248286154   -0.8883035656
C       -1.0852440643    0.1542583878    0.0600685179
C       -0.4655474427    1.4495078731   -0.4509748815
N        0.8063484125    1.5104603946   -0.2918409916
H        2.1704415475    0.2891044868    0.8692833393
H        1.3601290953   -1.9210459142   -0.1336123587
H       -0.8186581371   -1.1403303738   -1.9240878334
H       -2.1446712045    0.1671415777    0.3254177624
H       -1.0074874534    2.2008031098   -1.0233068143
C        0.0159127801   -0.3479181147    1.0625263378
H       -0.1064141367   -0.6621177085    2.0947165777
