13   
From optimize.out: Frame 2 / 3, Energy=    -286.8584653799
C        1.5751877236    0.4456964295   -0.0859246270
C        0.8224775221   -0.8153030354    0.1174561384
C       -0.5187162062   -0.9686041869   -0.5830774992
C       -1.1193980815    0.3160409781   -0.0361673903
C       -0.3701428071    1.5789271588   -0.2388473708
N        0.9609130039    1.6141495743   -0.2598457188
H        2.6634259738    0.4386562133   -0.0979529891
H        1.4063163589   -1.7246875642    0.2497027670
H       -0.9207244973   -1.7424615602   -1.2221101752
H       -2.2063341362    0.3789713473   -0.0331540677
H       -0.9040697882    2.5169144806   -0.3782928638
C       -0.5024268939   -0.7468623541    0.8584352223
H       -0.8865081718   -1.2914374808    1.7097785743
13   
From optimize.out: Frame 1 / 2, Energy=    -286.8516537540
C        1.1178881981    0.1497835100    0.5078453086
C        0.8410762677   -0.9836897933   -0.4921764511
C       -0.4767717848   -0.9589245046   -0.7512812491
C       -1.0712978219    0.1923965751    0.0847483464
C       -0.3803129916    1.4742830019   -0.4233321458
N        0.8762625072    1.4746884064   -0.1995197850
H        2.0814817621    0.1377257464    1.0150195456
H        1.5945911380   -1.6384676416   -0.9158066189
H       -1.0402428180   -1.5828434925   -1.4364036226
H       -2.1552459823    0.2134691380    0.1985642803
H       -0.8834027309    2.2890023599   -0.9414275433
C       -0.1689315856    0.0095212469    1.3096439707
H       -0.3350941578   -0.7769445526    2.0441259643
