13   
From optimize.out: Frame 1 / 2, Energy=    -286.8516537540
C        1.1178881981    0.1497835100    0.5078453086
C        0.8410762677   -0.9836897933   -0.4921764511
C       -0.4767717848   -0.9589245046   -0.7512812491
C       -1.0712978219    0.1923965751    0.0847483464
C       -0.3803129916    1.4742830019   -0.4233321458
N        0.8762625072    1.4746884064   -0.1995197850
H        2.0814817621    0.1377257464    1.0150195456
H        1.5945911380   -1.6384676416   -0.9158066189
H       -1.0402428180   -1.5828434925   -1.4364036226
H       -2.1552459823    0.2134691380    0.1985642803
H       -0.8834027309    2.2890023599   -0.9414275433
C       -0.1689315856    0.0095212469    1.3096439707
H       -0.3350941578   -0.7769445526    2.0441259643
