13   
From qcopt_rct.out: Frame 3 / 3, Energy=    -286.8584671167
C        1.5754785653    0.4456378027   -0.0864065337
C        0.8223283915   -0.8151126325    0.1169043780
C       -0.5184346897   -0.9679999234   -0.5827410394
C       -1.1197088540    0.3163730023   -0.0359153085
C       -0.3701531584    1.5790024873   -0.2391948709
N        0.9609384316    1.6142423936   -0.2595241318
H        2.6636733083    0.4391202389   -0.0978608632
H        1.4056143291   -1.7249866416    0.2489551345
H       -0.9199163278   -1.7438934080   -1.2196390896
H       -2.2065761233    0.3796194190   -0.0333785087
H       -0.9038662590    2.5172603176   -0.3783017375
C       -0.5020008311   -0.7459385163    0.8590849691
H       -0.8873767824   -1.2933245392    1.7080176017
13   
From qcopt_prd.out: Frame 4 / 4, Energy=    -286.8516565786
C        1.1178832994    0.1504647269    0.5071172560
C        0.8412170162   -0.9832669769   -0.4924742580
C       -0.4761231641   -0.9583432314   -0.7521052153
C       -1.0712026299    0.1923376245    0.0845305467
C       -0.3806347972    1.4743321331   -0.4231107686
N        0.8759190277    1.4746775151   -0.2009207707
H        2.0813130172    0.1370264041    1.0146323582
H        1.5943963647   -1.6397644638   -0.9140547457
H       -1.0394767459   -1.5833684142   -1.4363870504
H       -2.1550433296    0.2138295472    0.1988367436
H       -0.8837721989    2.2898232493   -0.9400559736
C       -0.1694328684    0.0095775544    1.3099434918
H       -0.3350429910   -0.7773256685    2.0440483859
