13   
From qcts1.out: Frame 135 / 135, Energy=    -286.8244965767
C        1.1710553536    0.2316506942    0.4217309538
C        0.7464049778   -1.0117342904   -0.3583800336
C       -0.5522875267   -0.8850105222   -0.8713993516
C       -1.0747512292    0.1892878200    0.0802733931
C       -0.4204283099    1.4898113244   -0.3927640129
N        0.8532493624    1.5055845953   -0.2382344083
H        2.1499731015    0.1850863719    0.8923847221
H        1.4413551027   -1.8330046421   -0.5164882249
H       -1.0510853524   -1.4327103841   -1.6595879261
H       -2.1414760315    0.2038871002    0.3054697703
H       -0.9446845478    2.2830138958   -0.9234524930
C       -0.0416053343   -0.2311312752    1.1495893552
H       -0.1680561074   -0.7330137054    2.0985108136
