13   
From optimize.out: Frame 1 / 2, Energy=    -286.8505634645
C        0.6676558774   -0.0154210651    0.2559371522
C        0.9611103765   -1.1854461844   -0.6652675383
C        0.2326556326   -2.2709381243   -0.7757467511
C       -1.2866670197    1.1268138950    0.6545475113
C       -0.3760067462    1.8659578056   -0.2321391462
N        0.7310179234    1.2550971501   -0.4888873699
H        1.4747079013    0.0313192104    1.0083320433
H        1.8685615471   -1.0583370390   -1.2671433870
H        0.2675449070   -3.1914355799   -1.3447962848
H       -2.2616275649    1.4654544141    0.9866512757
H       -0.5833282452    2.8485032797   -0.6546456767
C       -0.6685379120   -0.0308549829    0.9496922397
H       -1.0270866775   -0.8407127794    1.5734659317
