13   
From optimize.out: Frame 1 / 2, Energy=    -286.8549308504
C        1.6774688141    0.3774503491   -0.2344494559
C        1.1088240356   -0.8462505356   -0.3004518600
C       -0.3292781738   -1.0590548081   -0.0694932338
C       -1.1502135752    0.3399325069    0.0839446471
C       -0.3165333041    1.5350772917   -0.1445994920
N        0.9694900417    1.5798387480   -0.2042314064
H        2.7527781877    0.4947146914   -0.3403912610
H        1.7151986111   -1.7167416076   -0.5388188414
H       -0.7972305314   -1.8957382884   -0.5914925113
H       -2.1699032729    0.4131518336   -0.2992776960
H       -0.8541783408    2.4674113564   -0.3341600216
C       -0.9261070981   -0.6008677321    1.1838200781
H       -1.6803153939   -1.0889238048    1.7896010540
13   
From optimize.out: Frame 29 / 30, Energy=    -286.8549308504
C        1.6728005382    0.3690996237   -0.2211413640
C        1.1100592631   -0.8517822182   -0.2930527849
C       -0.3379019019   -1.0565278340   -0.0838604976
C       -1.1560825361    0.3202795212    0.0335791497
C       -0.3244605673    1.5283444057   -0.1432747596
N        0.9626538113    1.5745497627   -0.1730160108
H        2.7482967273    0.4907964070   -0.3198416323
H        1.7100201880   -1.7177280904   -0.5608781294
H       -0.8185438082   -1.8785674800   -0.6177024357
H       -2.1700959878    0.3785813407   -0.3649007282
H       -0.8567762959    2.4694015864   -0.3015836430
C       -0.9311668346   -0.5905604960    1.1670933064
H       -1.6088025961   -1.0358865287    1.8785795295
13   
From optimize.out: Frame 26 / 30, Energy=    -286.8548972723
C        1.6647084543    0.3605971871   -0.1987076191
C        1.1047166817   -0.8594713758   -0.3003104020
C       -0.3421659414   -1.0673320777   -0.1013721527
C       -1.1766201843    0.3180418941    0.0084930690
C       -0.3341828425    1.5237472091   -0.1345457411
N        0.9534048213    1.5640975529   -0.1368967473
H        2.7401273643    0.4864870568   -0.2905258158
H        1.7077909405   -1.7177374656   -0.5861709344
H       -0.8204329332   -1.8912480694   -0.6365129582
H       -2.1772798406    0.3778868448   -0.4243636497
H       -0.8578026134    2.4703089315   -0.2903956516
C       -0.9508654157   -0.5877888101    1.1304900059
H       -1.5113984910   -0.9775888775    1.9608185968
13   
From optimize.out: Frame 20 / 30, Energy=    -286.8533073539
C        1.6569446039    0.3592816556   -0.1880940031
C        1.0922422321   -0.8624157065   -0.3076919989
C       -0.3596466722   -1.0666342842   -0.1330940085
C       -1.1846889977    0.3271901295    0.0278013036
C       -0.3379290695    1.5304010303   -0.1369302157
N        0.9489717227    1.5638984053   -0.1524639414
H        2.7350075142    0.4807282792   -0.2508410114
H        1.7047821311   -1.7277551242   -0.5462129092
H       -0.8168946917   -1.8843861009   -0.6960173670
H       -2.1820202961    0.4019122807   -0.4156507019
H       -0.8610623112    2.4719791988   -0.3218880797
C       -0.9758208367   -0.6221730385    1.1024619538
H       -1.4198853289   -0.9720267251    2.0186209796
13   
From optimize.out: Frame 17 / 30, Energy=    -286.8520701191
C        1.6513541153    0.3640124561   -0.1906353033
C        1.0796576533   -0.8586346914   -0.3020891553
C       -0.3797906575   -1.0574469145   -0.1622580976
C       -1.1735656523    0.3372402176    0.0603886109
C       -0.3346809146    1.5402398289   -0.1551200342
N        0.9517150340    1.5721389978   -0.2018007372
H        2.7327326284    0.4732450382   -0.2145309193
H        1.7003548520   -1.7352454468   -0.4706255062
H       -0.8316757020   -1.8459334532   -0.7678096536
H       -2.1822102845    0.4213081372   -0.3570980295
H       -0.8647808802    2.4713567260   -0.3711360289
C       -0.9847636834   -0.6641394353    1.0946432176
H       -1.3643465086   -1.0181414607    2.0380716368
13   
From optimize.out: Frame 14 / 30, Energy=    -286.8510516062
C        1.6420055424    0.3661119852   -0.1912237798
C        1.0658706398   -0.8572719600   -0.2839761818
C       -0.3975824216   -1.0576165105   -0.1875294014
C       -1.1608464865    0.3405584861    0.0704922822
C       -0.3345727821    1.5453112980   -0.1800655195
N        0.9521772824    1.5770833998   -0.2417772601
H        2.7252171331    0.4633447000   -0.1787664915
H        1.6940288907   -1.7396031292   -0.3918446478
H       -0.8676847948   -1.7887302200   -0.8444511163
H       -2.1862992028    0.4200390453   -0.3032933161
H       -0.8692765009    2.4720737769   -0.4038419884
C       -0.9668943270   -0.6848532326    1.0905573588
H       -1.2961429725   -1.0564476391    2.0457200616
13   
From optimize.out: Frame 11 / 30, Energy=    -286.8481871088
C        1.6287008621    0.3632216894   -0.1824625503
C        1.0497056149   -0.8622184262   -0.2578371215
C       -0.4141640074   -1.0724885521   -0.2091577325
C       -1.1598149808    0.3351923265    0.0562179547
C       -0.3420426479    1.5439527813   -0.2017723530
N        0.9464428441    1.5750944020   -0.2555387532
H        2.7124408320    0.4520816346   -0.1465870781
H        1.6816765137   -1.7474830409   -0.3251550668
H       -0.9055870345   -1.7278250211   -0.9247989784
H       -2.1987085412    0.4003960479   -0.2784645343
H       -0.8752821373    2.4749953985   -0.4110629557
C       -0.9239310544   -0.6767024131    1.0839884777
H       -1.1994362632   -1.0582168267    2.0526306915
13   
From optimize.out: Frame 8 / 30, Energy=    -286.8343030878
C        1.6136423339    0.3571031896   -0.1681181211
C        1.0313375995   -0.8716833026   -0.2302557068
C       -0.4320962356   -1.0949384325   -0.2270657519
C       -1.1696493422    0.3248993458    0.0316882057
C       -0.3540545514    1.5396222858   -0.2143895296
N        0.9366205011    1.5691721730   -0.2507632631
H        2.6974612079    0.4408646014   -0.1225873801
H        1.6615794596   -1.7608626144   -0.2718099720
H       -0.9251174834   -1.6783896833   -1.0002212016
H       -2.2158160532    0.3759913591   -0.2781658977
H       -0.8830873056    2.4784169744   -0.3986117305
C       -0.8694951308   -0.6502353225    1.0732921064
H       -1.0913249998   -1.0299605738    2.0570082423
13   
From optimize.out: Frame 6 / 30, Energy=    -286.8168501503
C        1.5980451736    0.3484391344   -0.1529626406
C        1.0123769632   -0.8836392833   -0.2047802453
C       -0.4522975152   -1.1195337615   -0.2419242349
C       -1.1862160875    0.3124291286    0.0048033079
C       -0.3676234011    1.5342751933   -0.2173304357
N        0.9243963217    1.5616766162   -0.2368664643
H        2.6816290042    0.4305847294   -0.1064362462
H        1.6362375612   -1.7784981387   -0.2265877577
H       -0.9229119842   -1.6453660457   -1.0683791970
H       -2.2354324657    0.3548686640   -0.2915842426
H       -0.8925960292    2.4807225570   -0.3723605950
C       -0.8124672969   -0.6142889633    1.0574891187
H       -0.9831402440   -0.9816698305    2.0569196328
13   
C5H5N+CH->C6H6N atoms 1-13 frame 89 charge -0.000 sz -1.000 sz^2 0.708
C        1.5831613092    0.3358550013   -0.1395813648
C        0.9962128892   -0.8969840288   -0.1836576837
C       -0.4739082281   -1.1429377282   -0.2537418894
C       -1.2079925523    0.2989543724   -0.0216443712
C       -0.3817035344    1.5275858326   -0.2105298173
N        0.9096111741    1.5530978634   -0.2174297177
H        2.6656947763    0.4216864359   -0.0975439470
H        1.6095954707   -1.7989336321   -0.1890057687
H       -0.8999187105   -1.6312215729   -1.1270405049
H       -2.2576231907    0.3403321770   -0.3130600151
H       -0.9037391794    2.4802565524   -0.3339687186
C       -0.7575842862   -0.5711193914    1.0360658050
H       -0.8818059380   -0.9165718816    2.0511379935
13   
C5H5N+CH->C6H6N atoms 1-13 frame 92 charge +0.000 sz -1.000 sz^2 0.659
C        1.5706367951    0.3182013058   -0.1287768646
C        0.9860833345   -0.9107270369   -0.1688085426
C       -0.4949194238   -1.1618242238   -0.2641179179
C       -1.2338846581    0.2859609716   -0.0463187066
C       -0.3963722860    1.5191007529   -0.1950559579
N        0.8918025801    1.5439769081   -0.1942058245
H        2.6506716833    0.4140479545   -0.0933084272
H        1.5855578553   -1.8205659355   -0.1601954963
H       -0.8627162660   -1.6374869491   -1.1725566037
H       -2.2824242645    0.3331148047   -0.3386331249
H       -0.9165332994    2.4760768329   -0.2856213094
C       -0.7073593710   -0.5219298455    1.0088275378
H       -0.7905426794   -0.8379455396    2.0387712377
13   
From optimize.out: Frame 2 / 54, Energy=    -286.6805898458
C        1.5617027638    0.2957434914   -0.1202882311
C        0.9836557644   -0.9239275817   -0.1609779822
C       -0.5119624850   -1.1732461737   -0.2762536144
C       -1.2613803720    0.2751309755   -0.0683404072
C       -0.4125238957    1.5083994576   -0.1730283137
N        0.8706935317    1.5350432055   -0.1690114868
H        2.6374710733    0.4059318456   -0.0892083086
H        1.5674181734   -1.8412338388   -0.1394418253
H       -0.8236338738   -1.6621541084   -1.2037078098
H       -2.3088495216    0.3309062914   -0.3635968490
H       -0.9318712333    2.4671261028   -0.2311151240
C       -0.6618386881   -0.4680386476    0.9758099347
H       -0.7088812371   -0.7496810195    2.0191600174
13   
From optimize.out: Frame 5 / 54, Energy=    -286.7431174098
C        1.5547274162    0.2706119659   -0.1136237034
C        0.9876253552   -0.9338086823   -0.1596669445
C       -0.5207483103   -1.1750723087   -0.2919880190
C       -1.2841728826    0.2675378107   -0.0878261188
C       -0.4312055846    1.4931348928   -0.1462601981
N        0.8454293547    1.5227227728   -0.1423052021
H        2.6245024489    0.3933717618   -0.0816178146
H        1.5567581744   -1.8559205742   -0.1245900735
H       -0.7948998428   -1.6969988312   -1.2240346864
H       -2.3325771989    0.3287344329   -0.3838998556
H       -0.9508554453    2.4494936345   -0.1751077729
C       -0.6193080033   -0.4100167017    0.9381860709
H       -0.6352754818   -0.6537901734    1.9927343180
13   
From optimize.out: Frame 8 / 54, Energy=    -286.7784539284
C        1.5467944953    0.2455248832   -0.1092339942
C        0.9939028438   -0.9457929393   -0.1643670262
C       -0.5243143354   -1.1896493025   -0.3149384347
C       -1.3056793690    0.2630340154   -0.0915643289
C       -0.4529348398    1.4779378176   -0.1197836908
N        0.8155141378    1.5034806606   -0.1163219849
H        2.6074442336    0.3740641149   -0.0693813355
H        1.5559612621   -1.8651902782   -0.1100578681
H       -0.7782006946   -1.7103231813   -1.2322374166
H       -2.3501814436    0.3220374160   -0.4016447231
H       -0.9709824979    2.4275617106   -0.1278126430
C       -0.5582779842   -0.3183837504    0.8999885975
H       -0.5790458082   -0.5843011666    1.9573548486
13   
From optimize.out: Frame 14 / 54, Energy=    -286.8186200219
C        1.5444094340    0.2412769586   -0.1091870488
C        0.9955696268   -0.9716793168   -0.1734240392
C       -0.5276084479   -1.2448460610   -0.3415832438
C       -1.3333084999    0.2660522478   -0.0569231577
C       -0.4667270943    1.4850843816   -0.1193806418
N        0.8035567780    1.4967454388   -0.1139709247
H        2.6031984807    0.3667357870   -0.0545887850
H        1.5766809150   -1.8791465767   -0.0953014628
H       -0.7934475378   -1.6807090057   -1.2204932399
H       -2.3605688626    0.3032310986   -0.4006042336
H       -0.9761023971    2.4363418826   -0.1191418816
C       -0.4809394615   -0.1983456770    0.8883049525
H       -0.5847129336   -0.6207411579    1.9162937066
13   
From optimize.out: Frame 17 / 54, Energy=    -286.8338346841
C        1.5464321297    0.2685975343   -0.1171432126
C        0.9739654988   -0.9688002126   -0.1626933678
C       -0.5279722259   -1.2403648572   -0.3045153937
C       -1.3189315148    0.2728150640   -0.0435009501
C       -0.4499953680    1.4981386215   -0.1460704892
N        0.8355782709    1.5133790869   -0.1443186007
H        2.6176982777    0.3850604309   -0.0711529482
H        1.5696281035   -1.8761541772   -0.0959457645
H       -0.7937671770   -1.6564473369   -1.2317326307
H       -2.3493404533    0.3008560502   -0.3792728189
H       -0.9505378338    2.4659427187   -0.1666779430
C       -0.5057612486   -0.2497774152    0.9363775059
H       -0.6469964593   -0.7132455077    1.9266466135
13   
From optimize.out: Frame 21 / 54, Energy=    -286.8486034406
C        1.5454469202    0.2946586238   -0.1248361397
C        0.9519113071   -0.9522473709   -0.1501233201
C       -0.5326563357   -1.2184159248   -0.2726406362
C       -1.2868003250    0.2805810472   -0.0357658329
C       -0.4325496641    1.5031750486   -0.1745550669
N        0.8601356889    1.5215196068   -0.1747065709
H        2.6240262037    0.3915497551   -0.0870172268
H        1.5554729457   -1.8584932003   -0.0932523921
H       -0.7916514139   -1.6123742791   -1.2340100022
H       -2.3234949855    0.3044085257   -0.3570683246
H       -0.9270579344    2.4773630943   -0.2198124443
C       -0.5398512206   -0.3267590406    0.9780933725
H       -0.7029311864   -0.8049658857    1.9456945840
13   
From optimize.out: Frame 24 / 54, Energy=    -286.8553788441
C        1.5477045292    0.3187478210   -0.1353021579
C        0.9346916588   -0.9321627858   -0.1362679793
C       -0.5387663258   -1.1988788548   -0.2565676071
C       -1.2492546863    0.2888395516   -0.0239559562
C       -0.4159431340    1.5074507720   -0.2045110494
N        0.8823328531    1.5299977810   -0.2113505506
H        2.6307209676    0.3928221207   -0.0962128796
H        1.5459574622   -1.8346097632   -0.0775833610
H       -0.8039091839   -1.5631828624   -1.2407412873
H       -2.2951478682    0.3055934275   -0.3189670909
H       -0.9095496629    2.4815482180   -0.2732871732
C       -0.5716438274   -0.4034279873    1.0113983890
H       -0.7571927823   -0.8927374384    1.9633487037
13   
From optimize.out: Frame 27 / 54, Energy=    -286.8571776941
C        1.5527904540    0.3391972479   -0.1473975702
C        0.9239860850   -0.9139666181   -0.1211105285
C       -0.5378768715   -1.1829246048   -0.2597370046
C       -1.2104678170    0.2957299255   -0.0075174448
C       -0.4006778061    1.5132149204   -0.2359915632
N        0.9024168411    1.5409491569   -0.2553548823
H        2.6376898063    0.3947220598   -0.0944245804
H        1.5423949840   -1.8107650571   -0.0457343233
H       -0.8416290390   -1.5140216905   -1.2515777152
H       -2.2681987437    0.3070555551   -0.2619975471
H       -0.9005161409    2.4818905438   -0.3255859428
C       -0.5972139815   -0.4777803321    1.0326309423
H       -0.8026977707   -0.9733011067    1.9737981601
13   
From optimize.out: Frame 32 / 54, Energy=    -286.8582706833
C        1.5602652524    0.3578295233   -0.1591880958
C        0.9197183296   -0.8987534991   -0.1062176438
C       -0.5262636071   -1.1670304760   -0.2801633511
C       -1.1732546100    0.3007414361    0.0097778023
C       -0.3875822988    1.5198712961   -0.2652331537
N        0.9197437634    1.5522560879   -0.3003323079
H        2.6447696103    0.4027852473   -0.0828298047
H        1.5432199608   -1.7889286922   -0.0018912143
H       -0.9154224122   -1.4780689812   -1.2515343393
H       -2.2424434517    0.3124030562   -0.1977620109
H       -0.8982035976    2.4800818954   -0.3720524358
C       -0.6125120433   -0.5466833671    1.0368525528
H       -0.8320348958   -1.0465035267    1.9705740022
13   
From optimize.out: Frame 35 / 54, Energy=    -286.8583549362
C        1.5686305562    0.3763743508   -0.1706021703
C        0.9166283954   -0.8848936527   -0.0915208854
C       -0.5099901474   -1.1450553573   -0.3159346428
C       -1.1397245039    0.3063206937    0.0239365335
C       -0.3765948431    1.5281350853   -0.2881878502
N        0.9348441886    1.5633374091   -0.3402269864
H        2.6511535751    0.4157748946   -0.0670221651
H        1.5404146696   -1.7689408454    0.0502107833
H       -1.0100649352   -1.4724649986   -1.2303135666
H       -2.2179394736    0.3251376890   -0.1373793854
H       -0.8986403265    2.4793541229   -0.4081485234
C       -0.6163167799   -0.6091368270    1.0234403613
H       -0.8424003751   -1.1139425646    1.9517484976
13   
From optimize.out: Frame 38 / 54, Energy=    -286.8583879245
C        1.5726984318    0.3925230426   -0.1815700073
C        0.9021776380   -0.8724559746   -0.0679074537
C       -0.5044975481   -1.1156737775   -0.3646223995
C       -1.1108262412    0.3137752679    0.0357424526
C       -0.3683791569    1.5380499803   -0.3068770252
N        0.9475482238    1.5721976038   -0.3785427735
H        2.6524618894    0.4257577928   -0.0517531560
H        1.5185591026   -1.7517600496    0.1200770027
H       -1.0805930154   -1.4892597324   -1.2135389971
H       -2.1958524307    0.3490894946   -0.0761935208
H       -0.9010686142    2.4805198186   -0.4365128063
C       -0.6044808296   -0.6677014289    0.9973099081
H       -0.8277474496   -1.1750620376    1.9243887759
13   
From optimize.out: Frame 41 / 54, Energy=    -286.8584039489
C        1.5689043504    0.4033678399   -0.1875926640
C        0.8692528948   -0.8620455494   -0.0272614492
C       -0.5188412083   -1.0871882898   -0.4151816177
C       -1.0901402726    0.3218502545    0.0449429376
C       -0.3645086214    1.5475627447   -0.3233179838
N        0.9567097880    1.5757799794   -0.4137696952
H        2.6467470261    0.4267150570   -0.0420149055
H        1.4723105339   -1.7385223803    0.2055811416
H       -1.0975391037   -1.5119340130   -1.2328345021
H       -2.1791156380    0.3781062364   -0.0137395962
H       -0.9048419739    2.4828622467   -0.4595036628
C       -0.5741800718   -0.7170664702    0.9657411054
H       -0.7847577035   -1.2194876560    1.8989508919
13   
From optimize.out: Frame 44 / 54, Energy=    -286.8584204821
C        1.5673550847    0.4131688661   -0.1837919496
C        0.8299461211   -0.8467695425    0.0248066633
C       -0.5416114947   -1.0537459996   -0.4680461382
C       -1.0828578680    0.3261123712    0.0453565155
C       -0.3608304889    1.5555859515   -0.3326373433
N        0.9666478602    1.5791409200   -0.4306037412
H        2.6467456797    0.4229308577   -0.0444779112
H        1.4140950690   -1.7277283230    0.2803480746
H       -1.1017337376   -1.5453735591   -1.2504942884
H       -2.1722861020    0.3838246003    0.0373726087
H       -0.9033840397    2.4877173266   -0.4744478107
C       -0.5326762800   -0.7497410884    0.9284177405
H       -0.7294098039   -1.2451223807    1.8681975799
13   
From optimize.out: Frame 47 / 54, Energy=    -286.8584339412
C        1.5711897440    0.4194003199   -0.1724621090
C        0.8071834978   -0.8334242016    0.0670990024
C       -0.5594493859   -1.0155293904   -0.5119033739
C       -1.0910699640    0.3259276736    0.0368265377
C       -0.3566773133    1.5603692131   -0.3304435775
N        0.9738388826    1.5836467507   -0.4213739727
H        2.6549153933    0.4198924726   -0.0574248608
H        1.3722024701   -1.7246018670    0.3126795641
H       -1.1116378779   -1.5877582278   -1.2428597080
H       -2.1774798413    0.3637774981    0.0582953518
H       -0.8972466713    2.4938016449   -0.4771562907
C       -0.4968550492   -0.7577526999    0.8994167865
H       -0.6889138848   -1.2477491863    1.8393066502
13   
From optimize.out: Frame 53 / 54, Energy=    -286.8584609575
C        1.5725351892    0.4130627833   -0.1546016631
C        0.8072248021   -0.8350704603    0.0815840759
C       -0.5737719497   -0.9879160002   -0.5222698853
C       -1.1221282424    0.3268195503    0.0174664153
C       -0.3635570812    1.5630455764   -0.3064338925
N        0.9678395463    1.5795546574   -0.3735265772
H        2.6596984057    0.4143422380   -0.0847022367
H        1.3746745716   -1.7467599313    0.2612945244
H       -1.0527202528   -1.6604595429   -1.2292739146
H       -2.2109142860    0.3602224538    0.0246993114
H       -0.8867945429    2.5048760423   -0.4648893985
C       -0.4786684844   -0.7234552810    0.9042453888
H       -0.6934176754   -1.2082620857    1.8464078521
13   
From optimize.out: Frame 1 / 3, Energy=    -286.8584658956
C        1.5746923948    0.4172637902   -0.1540292814
C        0.8128889261   -0.8307310202    0.0872719796
C       -0.5642449310   -0.9779216288   -0.5327024313
C       -1.1217467969    0.3269376982    0.0051568637
C       -0.3657788397    1.5700649787   -0.2856656606
N        0.9645462911    1.5851123652   -0.3428911829
H        2.6628382573    0.4186418149   -0.1186209960
H        1.3831143788   -1.7506717485    0.2142449819
H       -1.0230128105   -1.7353992937   -1.1531081100
H       -2.2098488933    0.3972118025    0.0252065795
H       -0.8809899083    2.5122896074   -0.4680856158
C       -0.4691999533   -0.7212949502    0.9016137901
H       -0.7632581150   -1.2115034158    1.8216090832
13   
From optimize.out: Frame 2 / 3, Energy=    -286.8584720586
C        1.5767691825    0.4213666559   -0.1576053980
C        0.8156650881   -0.8229764499    0.1096785825
C       -0.5524954911   -0.9776632679   -0.5327645269
C       -1.1159425830    0.3309439894   -0.0016188268
C       -0.3588991119    1.5756439242   -0.2754661395
N        0.9707744973    1.5920627324   -0.3456524051
H        2.6638320176    0.4005851631   -0.2041885756
H        1.3918924943   -1.7363941838    0.2476437722
H       -0.9903885849   -1.7662940803   -1.1286850695
H       -2.2009376715    0.4097478073    0.0414728889
H       -0.8860700760    2.5147907341   -0.4321474119
C       -0.4778645425   -0.7121652157    0.9002041232
H       -0.8363352189   -1.2296478088    1.7791289863
