13   
From optimize.out: Frame 1 / 23, Energy=    -286.7003303042
C        1.2630391715    0.1705669203   -1.3535427353
C        0.5281763691   -1.0886969910   -1.1397329043
C       -0.6725311603   -0.6156500229   -2.1805806593
C       -1.0545281188    0.1136079550   -0.4836490199
C       -0.6408205895    0.9073519054   -2.0354474545
N        0.7897343840    1.3597918679   -1.6423679725
H        2.3599876428    0.2886642651   -1.2152300212
H        1.2042542673   -1.8760319775   -1.4806412157
H       -1.2985550845   -1.5510821207   -2.1139987367
H       -1.9894069796    0.5787999553   -0.1406914211
H       -1.1642524705    1.5708654409   -2.6855387645
C       -0.2868492221   -0.9737765998    0.1044948445
H       -0.1010291423   -0.8173633865    1.1771886182
13   
From optimize.out: Frame 2 / 23, Energy=    -286.7356665601
C        1.3233376620    0.1797566280   -1.3566947654
C        0.5450672055   -1.0697291648   -1.1554215605
C       -0.6762386860   -0.6175979030   -2.1662479151
C       -1.0858791808    0.1162105718   -0.4887632960
C       -0.6451183574    0.8808755762   -2.0061583133
N        0.7851416248    1.3273170050   -1.6560575603
H        2.4151343317    0.2773093688   -1.2005005123
H        1.2066193888   -1.8772535403   -1.4783842490
H       -1.3204360349   -1.5213872110   -2.1149061615
H       -2.0245006784    0.5696568345   -0.1525124301
H       -1.1876230134    1.5475540730   -2.6485905312
C       -0.2982291969   -0.9396702626    0.0818469543
H       -0.1000559978   -0.8059947640    1.1526528980
13   
From optimize.out: Frame 3 / 23, Energy=    -286.7625024514
C        1.3571881441    0.1921939533   -1.3599971186
C        0.5537551261   -1.0566133081   -1.1719468926
C       -0.6647439179   -0.6267042914   -2.1532374110
C       -1.1029272393    0.1266474934   -0.5014416734
C       -0.6380935526    0.8493504941   -1.9709210800
N        0.7705137051    1.3002147489   -1.6677215144
H        2.4391021420    0.2800205615   -1.1862369096
H        1.1948050169   -1.8890185037   -1.4735858587
H       -1.3310746643   -1.4976869577   -2.1209592782
H       -2.0423794319    0.5745761015   -0.1716386242
H       -1.2007771426    1.5205632682   -2.5987609906
C       -0.3078867186   -0.9064836298    0.0588720339
H       -0.0902623999   -0.8000127187    1.1278378752
13   
From optimize.out: Frame 4 / 23, Energy=    -286.7821772868
C        1.3849827996    0.2007886665   -1.3654619995
C        0.5626739154   -1.0474817919   -1.1846603284
C       -0.6478025445   -0.6389353482   -2.1476942898
C       -1.1184295155    0.1419317272   -0.5168864855
C       -0.6342220205    0.8256437427   -1.9359900922
N        0.7585841979    1.2788536002   -1.6795980930
H        2.4602169861    0.2813396422   -1.1759512672
H        1.1810413694   -1.9053905703   -1.4605581541
H       -1.3391873336   -1.4818106452   -2.1401198326
H       -2.0610684545    0.5818077023   -0.1902457604
H       -1.2198231718    1.4994141277   -2.5452132971
C       -0.3116801966   -0.8732351803    0.0425841846
H       -0.0780669643   -0.7958784613    1.1100579729
13   
From optimize.out: Frame 5 / 23, Energy=    -286.7966285723
C        1.4065551860    0.2082985751   -1.3734652220
C        0.5712031910   -1.0403091988   -1.1933445411
C       -0.6279805407   -0.6531725888   -2.1483270340
C       -1.1303247649    0.1590883259   -0.5308449720
C       -0.6320943829    0.8068457953   -1.9036926394
N        0.7525888215    1.2640442836   -1.6932628563
H        2.4765400589    0.2841088961   -1.1706195425
H        1.1648504746   -1.9244464039   -1.4377123168
H       -1.3457150859   -1.4682194093   -2.1697437322
H       -2.0767170067    0.5875358651   -0.2023532654
H       -1.2409490779    1.4805601463   -2.4940326917
C       -0.3126883997   -0.8409197984    0.0309374984
H       -0.0680494061   -0.7963672766    1.0967238727
13   
From optimize.out: Frame 6 / 23, Energy=    -286.8071182060
C        1.4230084799    0.2149337379   -1.3836722613
C        0.5790949632   -1.0340612634   -1.1978314744
C       -0.6055232546   -0.6666790996   -2.1550512544
C       -1.1392242688    0.1768927684   -0.5384352172
C       -0.6322394452    0.7920205046   -1.8774613927
N        0.7506502815    1.2542982694   -1.7107907208
H        2.4893420991    0.2875902438   -1.1706279598
H        1.1469984503   -1.9438674120   -1.4045301462
H       -1.3489103684   -1.4537471681   -2.2100322132
H       -2.0888233106    0.5908042604   -0.2014725747
H       -1.2623557292    1.4628707502   -2.4518333000
C       -0.3123207655   -0.8096203280    0.0239386990
H       -0.0624780646   -0.8043880521    1.0880623733
13   
From optimize.out: Frame 7 / 23, Energy=    -286.8150605827
C        1.4350425488    0.2217711845   -1.3946204916
C        0.5857199870   -1.0279458196   -1.1999591531
C       -0.5803650270   -0.6800591188   -2.1674259189
C       -1.1449727436    0.1961753852   -0.5366407516
C       -0.6339179602    0.7779677949   -1.8590964195
N        0.7488805549    1.2475714214   -1.7308309135
H        2.4988255157    0.2931671045   -1.1747187297
H        1.1287712132   -1.9607746560   -1.3642249554
H       -1.3470967017   -1.4392470952   -2.2569497840
H       -2.0940730621    0.5973919146   -0.1837139686
H       -1.2820807730    1.4439358308   -2.4218676966
C       -0.3132003853   -0.7798566627    0.0193085628
H       -0.0643140997   -0.8230500721    1.0810027773
13   
From optimize.out: Frame 8 / 23, Energy=    -286.8219741254
C        1.4439741483    0.2285635015   -1.4046169367
C        0.5906322654   -1.0222609419   -1.2026476641
C       -0.5525727427   -0.6943753423   -2.1862694880
C       -1.1485697989    0.2175947833   -0.5268423974
C       -0.6374007149    0.7615491070   -1.8460824302
N        0.7448122234    1.2411281455   -1.7498901360
H        2.5055115927    0.3004641363   -1.1790729750
H        1.1114100023   -1.9737908775   -1.3230844665
H       -1.3383399130   -1.4282820247   -2.3051428931
H       -2.0910010641    0.6134350413   -0.1514361651
H       -1.3009082683    1.4223091853   -2.3998769606
C       -0.3171929864   -0.7511691970    0.0140331151
H       -0.0731356767   -0.8481183050    1.0711919552
13   
From optimize.out: Frame 9 / 23, Energy=    -286.8286043874
C        1.4506804457    0.2346914214   -1.4130051904
C        0.5937979866   -1.0172940101   -1.2060727067
C       -0.5234608787   -0.7090623130   -2.2101161969
C       -1.1520382598    0.2396835541   -0.5116723783
C       -0.6419936570    0.7431354379   -1.8360587377
N        0.7400628411    1.2344060226   -1.7677752360
H        2.5098926086    0.3081610610   -1.1812412761
H        1.0934630026   -1.9840497929   -1.2833891499
H       -1.3248968436   -1.4204729402   -2.3545490127
H       -2.0835205275    0.6344884131   -0.1100059341
H       -1.3186774045    1.3990821169   -2.3823559783
C       -0.3230124163   -0.7223698686    0.0084690038
H       -0.0830778301   -0.8733518906    1.0580353509
13   
From optimize.out: Frame 10 / 23, Energy=    -286.8346633548
C        1.4546689459    0.2406355171   -1.4195601004
C        0.5960763622   -1.0131571451   -1.2074845679
C       -0.4959791503   -0.7226749930   -2.2341352190
C       -1.1551572040    0.2623012565   -0.4921092330
C       -0.6475499477    0.7247489308   -1.8313317572
N        0.7355574815    1.2291769751   -1.7856462582
H        2.5121236982    0.3167578950   -1.1832097625
H        1.0766168982   -1.9916951524   -1.2427080841
H       -1.3106542220   -1.4132685730   -2.4055113704
H       -2.0727084167    0.6581141847   -0.0626125591
H       -1.3346243758    1.3754270573   -2.3735218974
C       -0.3284077290   -0.6949992230    0.0047162345
H       -0.0927432733   -0.9043195183    1.0433771325
13   
From optimize.out: Frame 11 / 23, Energy=    -286.8396830088
C        1.4553632221    0.2465147337   -1.4253285072
C        0.5984861131   -1.0102996756   -1.2050981258
C       -0.4734548532   -0.7341375248   -2.2526379308
C       -1.1556514987    0.2854037054   -0.4711266971
C       -0.6545435782    0.7082757058   -1.8322047175
N        0.7304242422    1.2271368492   -1.8015698556
H        2.5126574494    0.3261332070   -1.1900192756
H        1.0659389309   -1.9956563656   -1.2000678385
H       -1.2975991454   -1.4058544125   -2.4558082505
H       -2.0569828672    0.6846612822   -0.0144840765
H       -1.3485654522    1.3527906464   -2.3749390387
C       -0.3307462071   -0.6725365215    0.0039468931
H       -0.1081072886   -0.9453844181    1.0295999784
13   
From optimize.out: Frame 12 / 23, Energy=    -286.8436649570
C        1.4531967715    0.2517386131   -1.4317146263
C        0.6008424783   -1.0085298998   -1.2001677799
C       -0.4565665455   -0.7430834844   -2.2648472296
C       -1.1514527910    0.3064440910   -0.4509349188
C       -0.6628500395    0.6947659336   -1.8350547496
N        0.7249420614    1.2283681050   -1.8136444398
H        2.5125408943    0.3344758142   -1.2058178417
H        1.0642343625   -1.9948561121   -1.1594659083
H       -1.2835102693   -1.4010492030   -2.5037218689
H       -2.0345887536    0.7117612317    0.0322705262
H       -1.3605411684    1.3326512969   -2.3818658003
C       -0.3295334315   -0.6569769612    0.0054033390
H       -0.1394945021   -0.9886622136    1.0198238557
13   
From optimize.out: Frame 13 / 23, Energy=    -286.8467809406
C        1.4480510909    0.2562487004   -1.4370245921
C        0.6019915846   -1.0075218327   -1.1933920334
C       -0.4446736627   -0.7498595505   -2.2717716312
C       -1.1435878545    0.3251047649   -0.4329452588
C       -0.6726051014    0.6852845650   -1.8377323974
N        0.7192880506    1.2319922195   -1.8216201864
H        2.5112971980    0.3409830522   -1.2284416698
H        1.0707196486   -1.9896104599   -1.1252381443
H       -1.2658678257   -1.4034753077   -2.5445824155
H       -2.0063252040    0.7405772032    0.0761050405
H       -1.3703051603    1.3164433554   -2.3919548548
C       -0.3263372408   -0.6466596706    0.0078694994
H       -0.1844264561   -1.0324598277    1.0109912016
13   
From optimize.out: Frame 14 / 23, Energy=    -286.8490835424
C        1.4408730348    0.2601709489   -1.4408879756
C        0.6014050442   -1.0063839765   -1.1844456397
C       -0.4362805879   -0.7549633332   -2.2745529205
C       -1.1341769173    0.3416102389   -0.4179592670
C       -0.6836734283    0.6797869252   -1.8394468418
N        0.7136079132    1.2370489370   -1.8258330779
H        2.5089918005    0.3456553759   -1.2553914481
H        1.0833603658   -1.9804732692   -1.0995348760
H       -1.2432199881   -1.4160532676   -2.5744515868
H       -1.9737723634    0.7730804591    0.1152833705
H       -1.3781485629    1.3053341903   -2.4025042669
C       -0.3238955518   -0.6400858210    0.0108353050
H       -0.2378516916   -1.0776801963    0.9991517826
13   
From optimize.out: Frame 15 / 23, Energy=    -286.8505286547
C        1.4325069163    0.2641065619   -1.4420857854
C        0.5991120307   -1.0045353317   -1.1738102784
C       -0.4306649015   -0.7585106323   -2.2747422046
C       -1.1246045339    0.3547480263   -0.4057706561
C       -0.6956148831    0.6772437346   -1.8406115667
N        0.7081703286    1.2424651631   -1.8280881845
H        2.5057057895    0.3490659790   -1.2835141070
H        1.1011346425   -1.9679227266   -1.0856464381
H       -1.2161917277   -1.4385104633   -2.5923081868
H       -1.9366907372    0.8100824474    0.1498714581
H       -1.3843624593    1.2990730073   -2.4124801225
C       -0.3238095359   -0.6385218044    0.0144493644
H       -0.2974718619   -1.1217367499    0.9849992653
13   
From optimize.out: Frame 16 / 23, Energy=    -286.8510376140
C        1.4250636680    0.2655750498   -1.4403264674
C        0.5944243632   -1.0039388335   -1.1659905492
C       -0.4287462963   -0.7598731533   -2.2744648658
C       -1.1222317398    0.3607402010   -0.4023357162
C       -0.7032533379    0.6777054699   -1.8415801666
N        0.7038328528    1.2467609948   -1.8233820391
H        2.5008750114    0.3489878191   -1.2968929983
H        1.1143092299   -1.9585159502   -1.0855952399
H       -1.1977385165   -1.4599252959   -2.5906831915
H       -1.9136150497    0.8402071337    0.1632008036
H       -1.3855602584    1.2997905980   -2.4193680748
C       -0.3280322623   -0.6385607882    0.0161833914
H       -0.3221085973   -1.1519060337    0.9714976714
13   
From optimize.out: Frame 18 / 23, Energy=    -286.8514524929
C        1.4196934514    0.2682502010   -1.4315354260
C        0.5907282889   -1.0042761544   -1.1647784553
C       -0.4286049777   -0.7571630259   -2.2794601665
C       -1.1223004542    0.3543840860   -0.4023571730
C       -0.7082451683    0.6775144721   -1.8447013623
N        0.7013917336    1.2492854558   -1.8195869294
H        2.4966313244    0.3508547140   -1.2940953362
H        1.1278115543   -1.9513964036   -1.1116405515
H       -1.1883463858   -1.4787299347   -2.5717217267
H       -1.8902306165    0.8661414141    0.1677540709
H       -1.3844933916    1.3018113416   -2.4262635207
C       -0.3373177772   -0.6548954240    0.0131354337
H       -0.3394985143   -1.1547335306    0.9755137008
13   
From optimize.out: Frame 19 / 23, Energy=    -286.8515559341
C        1.4202985374    0.2660892383   -1.4331909808
C        0.5901041433   -1.0060174638   -1.1683601741
C       -0.4262207457   -0.7568726874   -2.2856474463
C       -1.1272550228    0.3496704814   -0.4065950282
C       -0.7070199086    0.6755342081   -1.8446263863
N        0.7001256838    1.2505202126   -1.8076071907
H        2.4960525004    0.3492967181   -1.2883418046
H        1.1251044873   -1.9543048704   -1.1149011816
H       -1.1930590925   -1.4772352559   -2.5620665857
H       -1.8955185064    0.8658184484    0.1587660270
H       -1.3827378357    1.3040140185   -2.4227379347
C       -0.3400593843   -0.6549908933    0.0090568149
H       -0.3225957892   -1.1444749431    0.9765144289
13   
From optimize.out: Frame 20 / 23, Energy=    -286.8516200562
C        1.4195755981    0.2684792333   -1.4252616365
C        0.5905075520   -1.0072380968   -1.1718139426
C       -0.4252014362   -0.7543137793   -2.2898435944
C       -1.1292624403    0.3453684520   -0.4071435336
C       -0.7061191277    0.6750545289   -1.8475693695
N        0.7007456264    1.2497774684   -1.8107425755
H        2.4946515041    0.3527373009   -1.2757868023
H        1.1246334464   -1.9563480721   -1.1243699508
H       -1.2025538970   -1.4720368318   -2.5453028265
H       -1.8951477370    0.8697973273    0.1536362728
H       -1.3809230792    1.3017532872   -2.4290044817
C       -0.3441756866   -0.6636907008    0.0054485802
H       -0.3095112557   -1.1422929057    0.9780164184
13   
From optimize.out: Frame 21 / 23, Energy=    -286.8516328976
C        1.4199254104    0.2685399519   -1.4269617757
C        0.5912950225   -1.0069955392   -1.1714554152
C       -0.4243839838   -0.7551500315   -2.2903066597
C       -1.1283028174    0.3449914787   -0.4071485564
C       -0.7065168022    0.6744478765   -1.8482997439
N        0.7003893616    1.2508438199   -1.8087210441
H        2.4952083832    0.3530877471   -1.2790120836
H        1.1265535583   -1.9553669301   -1.1224278194
H       -1.2026937239   -1.4723890041   -2.5449828684
H       -1.8928999624    0.8704414319    0.1543788664
H       -1.3815009306    1.3023666744   -2.4280892158
C       -0.3443605047   -0.6646875269    0.0051790023
H       -0.3154939439   -1.1430827371    0.9781098713
13   
From optimize.out: Frame 22 / 23, Energy=    -286.8516360554
C        1.4200601749    0.2687172019   -1.4273159831
C        0.5917953978   -1.0067055201   -1.1719182987
C       -0.4234207170   -0.7552399791   -2.2911241233
C       -1.1278121900    0.3449200297   -0.4068607184
C       -0.7067479018    0.6742767647   -1.8478175450
N        0.7004319002    1.2509202492   -1.8086670945
H        2.4955468793    0.3532152733   -1.2807250346
H        1.1277754914   -1.9545527634   -1.1209196940
H       -1.2034275319   -1.4715986208   -2.5433645494
H       -1.8921746627    0.8703746049    0.1549995728
H       -1.3815089264    1.3017762569   -2.4282008808
C       -0.3441243505   -0.6648339124    0.0048238922
H       -0.3191744961   -1.1442223734    0.9773530145
