13   
From optimize.out: Frame 1 / 2, Energy=    -286.9243488101
C        1.4825463761    0.2724760228   -0.7647880892
C        1.0840107170   -1.0147339519   -0.4539408633
C       -0.1324978688   -1.4384895748    0.1903973881
C       -1.2191139912    0.7946994251    0.5407614240
C       -0.2916276727    1.6649833741    0.0015535527
N        0.9155635246    1.4872344921   -0.5863845641
H        2.4552614483    0.3435007485   -1.2565741188
H        1.7798156307   -1.8023699243   -0.7328645564
H       -0.2411190373   -2.5110282525    0.3391467908
H       -2.1146245045    1.2569939177    0.9491657874
H       -0.5707413434    2.7197697806    0.0490519492
C       -1.1477814294   -0.6418431165    0.6283896289
H       -1.9996918495   -1.1311929409    1.0960856707
