13   
From optimize.out: Frame 2 / 3, Energy=    -286.8383134969
C        1.5482631015    0.2439600781   -0.2499162964
C        0.5831613954   -0.9257548257   -0.0945058348
C       -0.7090733236   -0.3596409117   -0.7859874656
C       -1.1198146451    0.1988849191    0.5900884062
C       -0.4422720388    1.0837288812   -0.5510927869
N        0.9666768840    1.3699051016   -0.4517862960
H        2.6206041138    0.1766951608   -0.0731473905
H        0.9604500354   -1.9282857562   -0.3077102016
H       -1.3183502057   -0.8222857861   -1.5565333331
H       -2.0927552132    0.5054232907    0.9613640526
H       -1.0832845491    1.8562957945   -0.9634132650
C       -0.1337518241   -0.6625006690    1.2284612501
H        0.2201462699   -0.7364252773    2.2541791605
13   
From optimize.out: Frame 1 / 3, Energy=    -286.8383083155
C        1.5477255974    0.2440207349   -0.2492566422
C        0.5831869512   -0.9256665192   -0.0963448576
C       -0.7104209427   -0.3606046270   -0.7864160132
C       -1.1188234227    0.1997346515    0.5899274094
C       -0.4427073848    1.0830013269   -0.5527709375
N        0.9655620787    1.3692773523   -0.4535485873
H        2.6184038945    0.1766845042   -0.0637774026
H        0.9616089138   -1.9272756960   -0.3097850277
H       -1.3210858112   -0.8234516541   -1.5561275853
H       -2.0903897572    0.5088980849    0.9634525803
H       -1.0837427399    1.8556698745   -0.9643347575
C       -0.1326904676   -0.6631843754    1.2268954763
H        0.2233730905   -0.7371036576    2.2520863449
13   
From optimize.out: Frame 42 / 43, Energy=    -286.8383083154
C        1.5477255974    0.2440207349   -0.2492566422
C        0.5831869512   -0.9256665192   -0.0963448576
C       -0.7104209427   -0.3606046270   -0.7864160132
C       -1.1188234227    0.1997346515    0.5899274094
C       -0.4427073848    1.0830013269   -0.5527709375
N        0.9655620787    1.3692773523   -0.4535485873
H        2.6184038945    0.1766845042   -0.0637774026
H        0.9616089138   -1.9272756960   -0.3097850277
H       -1.3210858112   -0.8234516541   -1.5561275853
H       -2.0903897572    0.5088980849    0.9634525803
H       -1.0837427399    1.8556698745   -0.9643347575
C       -0.1326904676   -0.6631843754    1.2268954763
H        0.2233730905   -0.7371036576    2.2520863449
13   
From optimize.out: Frame 39 / 43, Energy=    -286.8382999756
C        1.5372969792    0.2484269940   -0.2533024596
C        0.5830090583   -0.9222962017   -0.1003971310
C       -0.6929575698   -0.3664491348   -0.7709798453
C       -1.0961752747    0.2236719072    0.5966786816
C       -0.4435751188    1.0872587156   -0.5525129857
N        0.9681717470    1.3784666765   -0.4580948872
H        2.5949430924    0.1800995368   -0.0482949435
H        0.9165414380   -1.9338778831   -0.3514828804
H       -1.2681118146   -0.8440642556   -1.5631020562
H       -2.0589377724    0.5216677242    0.9909578309
H       -1.1121372840    1.8336557873   -0.9813944228
C       -0.1240115002   -0.6537512866    1.2289670067
H        0.1959440195   -0.7528085799    2.2629580925
13   
From optimize.out: Frame 36 / 43, Energy=    -286.8382878253
C        1.5471292189    0.2551746621   -0.2559674639
C        0.5923528289   -0.9171155420   -0.1006563761
C       -0.6910140063   -0.3583125000   -0.7845885321
C       -1.0854675419    0.2621444888    0.6008560228
C       -0.4465334780    1.0883514862   -0.5506005893
N        0.9780563189    1.3832512464   -0.4691873316
H        2.6121080951    0.1896478817   -0.0563705458
H        0.9637887706   -1.9220951737   -0.3182456491
H       -1.3313125064   -0.8627444339   -1.4961673202
H       -2.0728803221    0.5116333148    0.9693916120
H       -1.0942338452    1.8450458245   -0.9904428021
C       -0.1368755996   -0.6641253453    1.2093632971
H        0.1648820669   -0.8108559096    2.2426156783
13   
From optimize.out: Frame 34 / 43, Energy=    -286.8382716717
C        1.5570926273    0.2693295178   -0.2560194144
C        0.6099190090   -0.9063816383   -0.0950396944
C       -0.6790071180   -0.3618149602   -0.7968211193
C       -1.0686389256    0.3110862185    0.6222051949
C       -0.4495371989    1.0794453188   -0.5537985265
N        0.9855455326    1.3934535637   -0.4801187262
H        2.6313215858    0.2077074966   -0.0845438422
H        1.0060314122   -1.9077696165   -0.2774932779
H       -1.3747918122   -0.8761382722   -1.4494110769
H       -2.0715294142    0.5370343534    0.9709443153
H       -1.0911318478    1.8320889109   -1.0039477537
C       -0.1690762051   -0.6886970160    1.1862121948
H        0.1138023548   -0.8893438766    2.2178317265
13   
From optimize.out: Frame 31 / 43, Energy=    -286.8382069164
C        1.5619503412    0.2877350594   -0.2531582616
C        0.6337709287   -0.8962653380   -0.0829290359
C       -0.6516018176   -0.3798302475   -0.7935075633
C       -1.0446593487    0.3580835997    0.6562579328
C       -0.4546871327    1.0646676151   -0.5609903135
N        0.9819101057    1.4048551580   -0.4872662367
H        2.6437037789    0.2303239599   -0.1372693054
H        1.0296805023   -1.9012384068   -0.2402597359
H       -1.3651310058   -0.8755921367   -1.4411534353
H       -2.0452477630    0.6058430325    0.9988876240
H       -1.1172427800    1.7952984291   -1.0172634957
C       -0.2186837196   -0.7233351758    1.1646127552
H        0.0462379104   -0.9705455489    2.1940390712
13   
From optimize.out: Frame 28 / 43, Energy=    -286.8380043374
C        1.5680436460    0.3067080081   -0.2497320527
C        0.6612370995   -0.8864713047   -0.0691448964
C       -0.6248148687   -0.4009114322   -0.7716772307
C       -1.0231853060    0.3949757398    0.6857876018
C       -0.4551932421    1.0497166858   -0.5701792689
N        0.9738779651    1.4148140827   -0.4918976382
H        2.6549130512    0.2555893811   -0.1983364992
H        1.0521371713   -1.8949160794   -0.2081092567
H       -1.3550497142   -0.8640891552   -1.4255490960
H       -2.0208328670    0.6760860317    1.0128928236
H       -1.1399252791    1.7567601466   -1.0306853577
C       -0.2691284341   -0.7568248179    1.1456694673
H       -0.0220792219   -1.0514372864    2.1709614037
13   
From optimize.out: Frame 25 / 43, Energy=    -286.8363486802
C        1.5767208946    0.3260090201   -0.2469355339
C        0.6920174246   -0.8759818210   -0.0569037989
C       -0.5971519573   -0.4236601425   -0.7346548317
C       -1.0078221133    0.4247123136    0.7142122311
C       -0.4506492918    1.0336587168   -0.5824540256
N        0.9600209641    1.4220931144   -0.4937658358
H        2.6647635737    0.2833056023   -0.2627960977
H        1.0728466285   -1.8875507765   -0.1896429677
H       -1.3445520021   -0.8468065000   -1.3971321049
H       -2.0018414447    0.7455367117    1.0158379365
H       -1.1541870007    1.7179421550   -1.0481076515
C       -0.3195781429   -0.7870012934    1.1325564075
H       -0.0905875326   -1.1322571005    2.1497862725
13   
From optimize.out: Frame 15 / 43, Energy=    -286.8332058640
C        1.5898811407    0.3459827068   -0.2454204673
C        0.7251982640   -0.8638075473   -0.0469252946
C       -0.5680386936   -0.4467612848   -0.6909894480
C       -0.9994588940    0.4487115092    0.7462537688
C       -0.4429712907    1.0168718746   -0.5997340176
N        0.9390156606    1.4254261841   -0.4945032033
H        2.6746542733    0.3099525568   -0.3279940868
H        1.0923202686   -1.8779688284   -0.1861055314
H       -1.3317873525   -0.8261289966   -1.3615779684
H       -1.9880258510    0.8105959507    1.0188688720
H       -1.1592934899    1.6808332973   -1.0727072956
C       -0.3702658263   -0.8125337743    1.1282902565
H       -0.1612282093   -1.2111736480    2.1325444158
13   
From optimize.out: Frame 12 / 43, Energy=    -286.8185238991
C        1.6066468918    0.3684143158   -0.2441567050
C        0.7577211850   -0.8497088442   -0.0358085788
C       -0.5389676585   -0.4675386420   -0.6509927510
C       -0.9905663254    0.4618488967    0.7805487175
C       -0.4344511173    0.9995814135   -0.6258231549
N        0.9099342859    1.4271012131   -0.4950650382
H        2.6828780922    0.3316538610   -0.3965531210
H        1.1098311482   -1.8657762919   -0.1890275611
H       -1.3174309559   -0.7954568324   -1.3306473354
H       -1.9694035633    0.8667439750    1.0284713831
H       -1.1596304394    1.6456536791   -1.1057750123
C       -0.4203050872   -0.8366258834    1.1372061170
H       -0.2362564561   -1.2858908601    2.1276230402
13   
From optimize.out: Frame 9 / 43, Energy=    -286.7908775422
C        1.6246048335    0.3960776597   -0.2423647355
C        0.7842921972   -0.8341397138   -0.0193635695
C       -0.5102816396   -0.4811928093   -0.6183504959
C       -0.9783394840    0.4611750983    0.8081306055
C       -0.4255296067    0.9837767148   -0.6604024931
N        0.8714876776    1.4321410113   -0.4930542037
H        2.6850570703    0.3438823773   -0.4731550680
H        1.1180871159   -1.8515889739   -0.1931612195
H       -1.3003932482   -0.7501443294   -1.3059625712
H       -1.9454144405    0.9077256544    1.0349962792
H       -1.1558357530    1.6135239678   -1.1489511179
C       -0.4620756350   -0.8644719182    1.1631606995
H       -0.3056590876   -1.3567647390    2.1484778900
13   
From optimize.out: Frame 6 / 43, Energy=    -286.7513092227
C        1.6467237163    0.4290649346   -0.2395879776
C        0.8024338738   -0.8166805877    0.0027399133
C       -0.4808923237   -0.4864843291   -0.5909518835
C       -0.9670604776    0.4595797158    0.8241659622
C       -0.4197695306    0.9731728646   -0.6970543173
N        0.8198515377    1.4455555037   -0.4919597189
H        2.6837674467    0.3389747741   -0.5492982234
H        1.1120186161   -1.8350011081   -0.1952709198
H       -1.2767382707   -0.7002155928   -1.2815150143
H       -1.9264225474    0.9369898524    1.0298534857
H       -1.1513269479    1.5847645476   -1.1998931972
C       -0.4887794183   -0.8960984643    1.1971103825
H       -0.3538056745   -1.4336221107    2.1916615084
13   
From optimize.out: Frame 3 / 43, Energy=    -286.6925010231
C        1.6743006080    0.4604163541   -0.2376485853
C        0.8132589344   -0.8028825047    0.0258293937
C       -0.4521980031   -0.4855844603   -0.5692144968
C       -0.9584918395    0.4736927219    0.8259321613
C       -0.4248403843    0.9677560842   -0.7282145770
N        0.7491698070    1.4595315463   -0.5011643352
H        2.6897299206    0.3259336021   -0.6053316107
H        1.0937415281   -1.8197832381   -0.1919511590
H       -1.2451447564   -0.6546507296   -1.2548947024
H       -1.9160368220    0.9716553270    1.0096175757
H       -1.1537745959    1.5588401587   -1.2463579910
C       -0.4981971825   -0.9291021143    1.2263571691
H       -0.3715172145   -1.5258227471    2.2470411576
13   
From optimize.out: Frame 1 / 43, Energy=    -286.6162339899
C        1.7021600863    0.4804168690   -0.2526832458
C        0.8285377050   -0.7964027995    0.0292352048
C       -0.4526485414   -0.4727951161   -0.5402123882
C       -0.9582601136    0.5021034234    0.8304905110
C       -0.4219481185    0.9526744764   -0.7285044573
N        0.7326270823    1.4524444339   -0.5224598273
H        2.7136098547    0.3264849581   -0.6399550498
H        1.0881573039   -1.8325358086   -0.1542614277
H       -1.1960486393   -0.6326014252   -1.2629305854
H       -1.9158984222    0.9982738450    1.0192343640
H       -1.1889414243    1.5227050164   -1.2287215441
C       -0.5217857146   -0.9269203604    1.2366250612
H       -0.4095610584   -1.5738475123    2.2141433845
13   
C6H6N->C6H6N atoms 1-13 frame 245 charge +0.000 sz -1.000 sz^2 0.623
C        1.7307640146    0.4901209025   -0.2768878854
C        0.8449017224   -0.7961885651    0.0183650064
C       -0.4731021955   -0.4507032839   -0.5092220406
C       -0.9635596829    0.5338868216    0.8428855235
C       -0.4124659049    0.9385887706   -0.7083867270
N        0.7639028522    1.4417681163   -0.5445902328
H        2.7491641719    0.3374861465   -0.6552477741
H        1.0948777499   -1.8606891165   -0.1037772083
H       -1.1566844695   -0.6523173654   -1.2965421356
H       -1.9193445783    1.0133000225    1.0522864946
H       -1.2373201227    1.4922247958   -1.1747635404
C       -0.5550513666   -0.9049897599    1.2373973594
H       -0.4660821905   -1.5824874849    2.1184831603
13   
From optimize.out: Frame 1 / 24, Energy=    -286.6359586858
C        1.7190909095    0.4754395796   -0.2902370570
C        0.8459917888   -0.8017293845    0.0019754254
C       -0.4904941267   -0.4485395482   -0.5024910066
C       -0.9694018629    0.5434168197    0.8525922552
C       -0.4045363842    0.9479576494   -0.6862166807
N        0.8149586686    1.4442731905   -0.5560098321
H        2.7486196060    0.3453342513   -0.6330576541
H        1.1067177472   -1.8689311149   -0.0814298391
H       -1.1543293005   -0.7091397507   -1.3175400879
H       -1.9283412827    1.0024690985    1.0770426122
H       -1.2428375401    1.5055830950   -1.1308806542
C       -0.5635851839   -0.8773392744    1.2163288314
H       -0.4818530389   -1.5587946114    2.0499236875
13   
From optimize.out: Frame 4 / 24, Energy=    -286.7306690275
C        1.6754100319    0.4338259258   -0.2819048328
C        0.8350234542   -0.8091807699   -0.0171983980
C       -0.5051398839   -0.4698296541   -0.5197279848
C       -0.9755479235    0.5456729685    0.8554316806
C       -0.4097142861    0.9673746615   -0.6583257675
N        0.8656498340    1.4375473475   -0.5540171646
H        2.7227476842    0.3484876749   -0.5665470000
H        1.1260150053   -1.8599683135   -0.0844545378
H       -1.1756915025   -0.7785827579   -1.3200263877
H       -1.9402555017    0.9861593129    1.0938524018
H       -1.2247710576    1.5455129056   -1.0962429270
C       -0.5457780576   -0.8385768793    1.1544612555
H       -0.4479477967   -1.5084424220    1.9946996623
13   
From optimize.out: Frame 6 / 24, Energy=    -286.7729725424
C        1.6458905372    0.4008359578   -0.2725516959
C        0.8257887947   -0.8192050063   -0.0323793631
C       -0.5166353534   -0.4979416054   -0.5351266955
C       -0.9793788761    0.5709297295    0.8634216738
C       -0.4237319979    0.9782186160   -0.6220550590
N        0.8980318109    1.4279400636   -0.5463922595
H        2.7090002817    0.3557234818   -0.4970886327
H        1.1422120180   -1.8580440185   -0.0840997570
H       -1.1856830813   -0.8551498264   -1.3220106634
H       -1.9444851080    0.9986294800    1.1188985545
H       -1.2181097407    1.5727692055   -1.0618489158
C       -0.5315622941   -0.8017372391    1.0776258423
H       -0.4213369909   -1.4729688387    1.9136069714
13   
From optimize.out: Frame 9 / 24, Energy=    -286.8138878907
C        1.6265703364    0.3777720931   -0.2672740899
C        0.8178281778   -0.8311394197   -0.0495689593
C       -0.5241825246   -0.5311837087   -0.5552974265
C       -0.9791729417    0.6070102320    0.8800379868
C       -0.4428868360    0.9823918519   -0.5833826322
N        0.9191455188    1.4190493675   -0.5361479022
H        2.7011207961    0.3641232464   -0.4306109466
H        1.1553765579   -1.8607767631   -0.0862738645
H       -1.1824864825   -0.9356620383   -1.3329322444
H       -1.9383157995    1.0285093216    1.1606564503
H       -1.2181194932    1.5909196671   -1.0309637364
C       -0.5248114886   -0.7652289262    1.0023696745
H       -0.4100658209   -1.4457849236    1.8293876902
13   
From optimize.out: Frame 12 / 24, Energy=    -286.8306032373
C        1.6122241991    0.3615525367   -0.2706020084
C        0.8094692721   -0.8443058761   -0.0718499975
C       -0.5324474852   -0.5626328821   -0.5860655245
C       -0.9681623114    0.6466871935    0.9048445292
C       -0.4651580792    0.9846214056   -0.5443515968
N        0.9299336380    1.4132100537   -0.5359990750
H        2.6959648169    0.3734184641   -0.3576241187
H        1.1686762206   -1.8658318015   -0.0892385213
H       -1.1734597245   -1.0151753723   -1.3519871792
H       -1.9180665558    1.0611149923    1.2214663617
H       -1.2194530706    1.6056295953   -1.0109909471
C       -0.5225869588   -0.7290389985    0.9394591819
H       -0.4169339613   -1.4292493108    1.7529388955
13   
From optimize.out: Frame 15 / 24, Energy=    -286.8360682727
C        1.5994779039    0.3564194686   -0.2844782996
C        0.7988127311   -0.8527275343   -0.0913544396
C       -0.5453550680   -0.5827555237   -0.6201322729
C       -0.9362159942    0.6847160493    0.9368694722
C       -0.4850928385    0.9906816365   -0.5120270046
N        0.9298355586    1.4131428505   -0.5544494198
H        2.6870252560    0.3850673264   -0.2811931886
H        1.1826912145   -1.8652539864   -0.0850209652
H       -1.1683855670   -1.0862558487   -1.3645340311
H       -1.8785533845    1.0802761155    1.2974202085
H       -1.2118902439    1.6172912908   -1.0187091234
C       -0.5170850887   -0.7002090574    0.8959741567
H       -0.4552644793   -1.4403927870    1.6816349074
13   
From optimize.out: Frame 17 / 24, Energy=    -286.8363609249
C        1.5915903251    0.3606687585   -0.3034070188
C        0.7888010766   -0.8542062060   -0.0967407334
C       -0.5583802909   -0.5886763780   -0.6439836244
C       -0.8886447195    0.7167473034    0.9680470426
C       -0.5000206249    0.9997864747   -0.4940800114
N        0.9215114232    1.4156040815   -0.5787542802
H        2.6772618761    0.3975145907   -0.2296418147
H        1.1948959499   -1.8585330149   -0.0771822609
H       -1.1641203853   -1.1457154968   -1.3591175655
H       -1.8271135630    1.0807504536    1.3721088068
H       -1.1975086212    1.6283401226   -1.0425432847
C       -0.4983884294   -0.6816677784    0.8717962427
H       -0.5398840167   -1.4706129109    1.6134985019
13   
From optimize.out: Frame 20 / 24, Energy=    -286.8364661177
C        1.5905197841    0.3673680350   -0.3169668283
C        0.7831145584   -0.8551471948   -0.0831861032
C       -0.5665165097   -0.5813376550   -0.6530964214
C       -0.8412766439    0.7389020631    0.9886819784
C       -0.5112343070    1.0050610821   -0.4902259723
N        0.9093349861    1.4140097633   -0.5977857043
H        2.6745216166    0.4096901238   -0.2188441635
H        1.2040496645   -1.8549037988   -0.0855739581
H       -1.1520574610   -1.1889678135   -1.3389286462
H       -1.7746182957    1.0674007622    1.4349851506
H       -1.1860857038    1.6403832800   -1.0614855834
C       -0.4606977924   -0.6741827672    0.8685387248
H       -0.6690538963   -1.4882758802    1.5538875269
13   
From optimize.out: Frame 23 / 24, Energy=    -286.8364925738
C        1.5870793774    0.3753843937   -0.3119053564
C        0.7820645319   -0.8578262721   -0.0688868138
C       -0.5627703348   -0.5794053138   -0.6571102004
C       -0.8325735059    0.7413699576    0.9848007508
C       -0.5271771098    0.9883395933   -0.4982636290
N        0.8917918591    1.4118715522   -0.5988534640
H        2.6718673927    0.4219606112   -0.2217395190
H        1.2115170854   -1.8547515029   -0.0957786751
H       -1.1230205578   -1.1920600677   -1.3575009314
H       -1.7091975256    1.1071311352    1.5074004878
H       -1.1954027774    1.6214851215   -1.0817205603
C       -0.4584914178   -0.6818767224    0.8724562961
H       -0.7356870172   -1.5016224859    1.5271016146
13   
From optimize.out: Frame 1 / 2, Energy=    -286.8364833336
C        1.5870793774    0.3753843937   -0.3119053564
C        0.7820645318   -0.8578262721   -0.0688868138
C       -0.5627703348   -0.5794053137   -0.6571102005
C       -0.8325735059    0.7413699577    0.9848007507
C       -0.5271771098    0.9883395933   -0.4982636290
N        0.8917918590    1.4118715522   -0.5988534640
H        2.6718673927    0.4219606112   -0.2217395189
H        1.2115170854   -1.8547515029   -0.0957786751
H       -1.1230205578   -1.1920600677   -1.3575009313
H       -1.7091975256    1.1071311352    1.5074004879
H       -1.1954027774    1.6214851215   -1.0817205603
C       -0.4584914177   -0.6818767224    0.8724562960
H       -0.7356870172   -1.5016224859    1.5271016146
