13   
From optimize.out: Frame 2 / 3, Energy=    -286.8383134969
C        1.5482631015    0.2439600781   -0.2499162964
C        0.5831613954   -0.9257548257   -0.0945058348
C       -0.7090733236   -0.3596409117   -0.7859874656
C       -1.1198146451    0.1988849191    0.5900884062
C       -0.4422720388    1.0837288812   -0.5510927869
N        0.9666768840    1.3699051016   -0.4517862960
H        2.6206041138    0.1766951608   -0.0731473905
H        0.9604500354   -1.9282857562   -0.3077102016
H       -1.3183502057   -0.8222857861   -1.5565333331
H       -2.0927552132    0.5054232907    0.9613640526
H       -1.0832845491    1.8562957945   -0.9634132650
C       -0.1337518241   -0.6625006690    1.2284612501
H        0.2201462699   -0.7364252773    2.2541791605
13   
From optimize.out: Frame 1 / 3, Energy=    -286.8383083155
C        1.5413833882    0.2512314142   -0.2544100707
C        0.5868924530   -0.9201430510   -0.1005048767
C       -0.6921497991   -0.3630674417   -0.7766357956
C       -1.0917249992    0.2396616214    0.5984148399
C       -0.4448046520    1.0877128855   -0.5517181685
N        0.9722799060    1.3804552071   -0.4627050539
H        2.6020770948    0.1840679553   -0.0516512707
H        0.9361780549   -1.9289808331   -0.3376690471
H       -1.2943788587   -0.8518279850   -1.5352830939
H       -2.0647324806    0.5174972908    0.9819946249
H       -1.1046963778    1.8383896375   -0.9851550490
C       -0.1293579902   -0.6580628827    1.2208194455
H        0.1830342609   -0.7769338185    2.2545035158
13   
From optimize.out: Frame 42 / 43, Energy=    -286.8383083154
C        1.5538081554    0.2646633208   -0.2560022888
C        0.6041282571   -0.9099201067   -0.0968912530
C       -0.6829652302   -0.3606603621   -0.7927886047
C       -1.0741865371    0.2949524084    0.6151673666
C       -0.4485470119    1.0823812676   -0.5527443155
N        0.9830766875    1.3900903346   -0.4765151542
H        2.6249877923    0.2017540822   -0.0752564178
H        0.9921059796   -1.9124920858   -0.2909274377
H       -1.3604587090   -0.8717229472   -1.4648244339
H       -2.0719747457    0.5286608133    0.9704324613
H       -1.0921544319    1.8363602022   -0.9994957998
C       -0.1584611643   -0.6805968800    1.1938440356
H        0.1306409582   -0.8634700474    2.2260018417
13   
From optimize.out: Frame 36 / 43, Energy=    -286.8382878253
C        1.5606958171    0.2829817544   -0.2538971658
C        0.6276110747   -0.8988779132   -0.0860566621
C       -0.6586793464   -0.3751777272   -0.7943633025
C       -1.0508521707    0.3459463373    0.6474636765
C       -0.4533571416    1.0684840165   -0.5591330056
N        0.9828489693    1.4019106505   -0.4854203634
H        2.6405060278    0.2244831674   -0.1236527428
H        1.0235730298   -1.9029251179   -0.2498754476
H       -1.3676259478   -0.8757331784   -1.4432860044
H       -2.0520351050    0.5880729148    0.9916711523
H       -1.1104995269    1.8047997187   -1.0138246519
C       -0.2058723798   -0.7143897320    1.1701908972
H        0.0636866995   -0.9495748910    2.2001836199
13   
From optimize.out: Frame 34 / 43, Energy=    -286.8382716717
C        1.5666123763    0.3022514106   -0.2505368424
C        0.6547855105   -0.8887718467   -0.0723826831
C       -0.6311069138   -0.3959596265   -0.7768050053
C       -1.0282293909    0.3863100642    0.6788513132
C       -0.4550743610    1.0532285424   -0.5680208550
N        0.9757646522    1.4124748091   -0.4908097581
H        2.6522800807    0.2496547309   -0.1839922923
H        1.0468622751   -1.8964011447   -0.2156611532
H       -1.3574177308   -0.8667911158   -1.4292144334
H       -2.0265677354    0.6595864997    1.0096031116
H       -1.1345973372    1.7658124882   -1.0275326671
C       -0.2572793646   -0.7489583625    1.1501190977
H       -0.0060320610   -1.0324364490    2.1763821676
13   
From optimize.out: Frame 31 / 43, Energy=    -286.8382069164
C        1.5748886703    0.3219335598   -0.2475260263
C        0.6855180766   -0.8781967036   -0.0594885394
C       -0.6029930551   -0.4188566915   -0.7424722103
C       -1.0110660926    0.4184333565    0.7082102946
C       -0.4516087590    1.0370493999   -0.5798621779
N        0.9629469069    1.4205561274   -0.4933713609
H        2.6626836095    0.2774532480   -0.2491852811
H        1.0684737712   -1.8891059799   -0.1935421740
H       -1.3467686221   -0.8504557789   -1.4031324286
H       -2.0058515343    0.7308720149    1.0152160680
H       -1.1511756000    1.7261386778   -1.0444288875
C       -0.3089255520   -0.7806294499    1.1353252652
H       -0.0761218196   -1.1151917805    2.1542574581
13   
From optimize.out: Frame 25 / 43, Energy=    -286.8363486802
C        1.5874040985    0.3422232281   -0.2457056355
C        0.7189529142   -0.8660990082   -0.0488034644
C       -0.5735184379   -0.4424131515   -0.6992082152
C       -1.0010330323    0.4441943428    0.7402228601
C       -0.4444164561    1.0200315205   -0.5964815503
N        0.9429693118    1.4247988284   -0.4943644148
H        2.6727926303    0.3049370251   -0.3157224187
H        1.0886549094   -1.8797723577   -0.1867713532
H       -1.3341899349   -0.8300209488   -1.3682700239
H       -1.9906262437    0.7983503983    1.0182983845
H       -1.1583323385    1.6878179849   -1.0680771119
C       -0.3607253108   -0.8077280105    1.1290932382
H       -0.1479321099   -1.1963198512    2.1357897052
13   
From optimize.out: Frame 15 / 43, Energy=    -286.8332058640
C        1.6038871991    0.3647220060   -0.2443647240
C        0.7523678151   -0.8520295328   -0.0376384234
C       -0.5437528377   -0.4641186270   -0.6575763267
C       -0.9920300687    0.4596864435    0.7749036665
C       -0.4358535632    1.0024274750   -0.6215288050
N        0.9147211670    1.4268254983   -0.4949725585
H        2.6815244270    0.3280817615   -0.3852680993
H        1.1069488051   -1.8677832198   -0.1885465863
H       -1.3197940616   -0.8005055622   -1.3357386100
H       -1.9724688474    0.8575018426    1.0268907811
H       -1.1595749765    1.6514443493   -1.1003319674
C       -0.4120684755   -0.8326602503    1.1357385397
H       -0.2239065827   -1.2735921839    2.1284331133
13   
From optimize.out: Frame 12 / 43, Energy=    -286.8185238991
C        1.6221413987    0.3922828571   -0.2426105543
C        0.7806472385   -0.8362754562   -0.0216194632
C       -0.5142167307   -0.4793197577   -0.6228282957
C       -0.9800167379    0.4612675287    0.8043469768
C       -0.4267534418    0.9859447720   -0.6556589681
N        0.8767617070    1.4314496618   -0.4933300460
H        2.6847581624    0.3422048937   -0.4626469649
H        1.1169545787   -1.8535351620   -0.1925941724
H       -1.3027304471   -0.7563602086   -1.3093487781
H       -1.9487052208    0.9021038689    1.0341012069
H       -1.1563563005    1.6179314579   -1.1430283054
C       -0.4563456342   -0.8606520544    1.1596003013
H       -0.2961385723   -1.3470424009    2.1456170631
13   
From optimize.out: Frame 9 / 43, Energy=    -286.7908775422
C        1.6442886944    0.4254334339   -0.2398936651
C        0.8004366943   -0.8186026267    0.0003065867
C       -0.4841277325   -0.4859017967   -0.5939681399
C       -0.9683021600    0.4597553482    0.8224006631
C       -0.4204036454    0.9743402204   -0.6930193941
N        0.8255360532    1.4440787301   -0.4920802085
H        2.6839094187    0.3395150420   -0.5409157814
H        1.1126866847   -1.8368272319   -0.1950386673
H       -1.2793423981   -0.7057121438   -1.2842063951
H       -1.9285133255    0.9337682176    1.0304196452
H       -1.1518233129    1.5879306125   -1.1942850894
C       -0.4858396542   -0.8926167635    1.1933729324
H       -0.3485053166   -1.4251610421    2.1869075135
13   
From optimize.out: Frame 6 / 43, Energy=    -286.7513092227
C        1.6720417880    0.4578483629   -0.2378074407
C        0.8123722549   -0.8040127041    0.0239381371
C       -0.4545483515   -0.4856581685   -0.5709950036
C       -0.9591936956    0.4725367272    0.8257874921
C       -0.4244250312    0.9681997720   -0.7256622437
N        0.7549593394    1.4583867702   -0.5004103861
H        2.6892415351    0.3270018030   -0.6007419225
H        1.0952386022   -1.8210297321   -0.1922230802
H       -1.2477325775   -0.6583829422   -1.2570751691
H       -1.9168875156    0.9688158820    1.0112750967
H       -1.1535741093    1.5609636224   -1.2425520652
C       -0.4974257746   -0.9263987891    1.2239615682
H       -0.3700664643   -1.5182706037    2.2425050170
13   
From optimize.out: Frame 1 / 43, Energy=    -286.6162339899
C        1.7079357085    0.4823762793   -0.2575705764
C        0.8318418799   -0.7963595419    0.0270403259
C       -0.4567784839   -0.4683343974   -0.5339549071
C       -0.9593301872    0.5085210349    0.8329932759
C       -0.4200334974    0.9498303315   -0.7244423436
N        0.7389421950    1.4502887028   -0.5269283345
H        2.7207888792    0.3287062862   -0.6430429123
H        1.0895142769   -1.8382204429   -0.1440678006
H       -1.1881003403   -0.6365824106   -1.2697173321
H       -1.9165942601    1.0013078871    1.0259081543
H       -1.1987099107    1.5165505387   -1.2178265006
C       -0.5285026185   -0.9224921972    1.2367810014
H       -0.4209736413   -1.5755920705    2.1948279497
13   
C6H6N->C6H6N atoms 1-13 frame 245 charge +0.000 sz -1.000 sz^2 0.623
C        1.7270890196    0.4854988428   -0.2810905494
C        0.8452449035   -0.7979329582    0.0132051430
C       -0.4785776247   -0.4500220840   -0.5071029372
C       -0.9653989521    0.5368871112    0.8459414534
C       -0.4099694870    0.9415383356   -0.7014070238
N        0.7799765419    1.4425567783   -0.5481854177
H        2.7489927285    0.3399569326   -0.6482617511
H        1.0986052869   -1.8632839105   -0.0967416792
H       -1.1559430015   -0.6702065200   -1.3031528334
H       -1.9221769733    1.0098901679    1.0600803599
H       -1.2390571483    1.4964303334   -1.1609480743
C       -0.5577380327   -0.8962846728    1.2307644426
H       -0.4710472610   -1.5750283563    2.0968988674
13   
From optimize.out: Frame 1 / 24, Energy=    -286.6359586858
C        1.6956305127    0.4530894602   -0.2857619343
C        0.8401008476   -0.8057314208   -0.0083225707
C       -0.4983601608   -0.4599741704   -0.5117487498
C       -0.9727028273    0.5446285661    0.8541172714
C       -0.4073173639    0.9583862587   -0.6712368560
N        0.8421841943    1.4406608330   -0.5549395979
H        2.7347241537    0.3470279116   -0.5973356993
H        1.1170820383   -1.8641173179   -0.0830543630
H       -1.1658026445   -0.7464366319   -1.3188754452
H       -1.9347402454    0.9937093377    1.0860709183
H       -1.2331342816    1.5270288455   -1.1122772087
C       -0.5540212220   -0.8565205267    1.1831006098
H       -0.4636430010   -1.5317511451    2.0202636253
13   
From optimize.out: Frame 6 / 24, Energy=    -286.7729725424
C        1.6586110023    0.4150519104   -0.2765821257
C        0.8297681705   -0.8148853880   -0.0258376204
C       -0.5116817551   -0.4858276752   -0.5284911225
C       -0.9777280518    0.5600461506    0.8599786464
C       -0.4176915214    0.9735457669   -0.6376847400
N        0.8840778522    1.4320800098   -0.5496779641
H        2.7149242772    0.3526054464   -0.5270194548
H        1.1352324427   -1.8588732308   -0.0842526383
H       -1.1813775357   -0.8221557410   -1.3211556044
H       -1.9426624969    0.9932558675    1.1081057304
H       -1.2209802183    1.5610239905   -1.0766698951
C       -0.5376881146   -0.8176120826    1.1107355621
H       -0.4328040513   -1.4882550245    1.9485512264
13   
From optimize.out: Frame 9 / 24, Energy=    -286.8138878907
C        1.6343887955    0.3871055303   -0.2694098206
C        0.8210496638   -0.8263098259   -0.0426127089
C       -0.5211283509   -0.5177313628   -0.5471347766
C       -0.9792562788    0.5924092487    0.8733137315
C       -0.4351352956    0.9807030354   -0.5990325102
N        0.9106012670    1.4226472361   -0.5402935676
H        2.7043094501    0.3607240470   -0.4575129996
H        1.1500491590   -1.8596708816   -0.0853940512
H       -1.1837800755   -0.9030805223   -1.3285125215
H       -1.9408123826    1.0164176089    1.1437579511
H       -1.2181155466    1.5835745757   -1.0434622871
C       -0.5275433907   -0.7800030350    1.0328241854
H       -0.4146270147   -1.4567856543    1.8634693754
13   
From optimize.out: Frame 12 / 24, Energy=    -286.8306032373
C        1.6176536297    0.3676909803   -0.2693425263
C        0.8126327786   -0.8393229069   -0.0634175291
C       -0.5293195332   -0.5507306468   -0.5744210485
C       -0.9723293880    0.6316710744    0.8954562600
C       -0.4567293178    0.9837776101   -0.5591232591
N        0.9258507729    1.4154199969   -0.5360554000
H        2.6979161457    0.3699006016   -0.3852466699
H        1.1636428382   -1.8639186747   -0.0881165191
H       -1.1768759859   -0.9850828035   -1.3447756600
H       -1.9257300724    1.0487750697    1.1984522790
H       -1.2189483657    1.6000624847   -1.0185498370
C       -0.5234288530   -0.7427354169    0.9632682493
H       -0.4143346490   -1.4355073689    1.7818716606
13   
From optimize.out: Frame 15 / 24, Energy=    -286.8360682727
C        1.6039170822    0.3582071727   -0.2796455754
C        0.8025241064   -0.8497945062   -0.0845615877
C       -0.5408597178   -0.5757473703   -0.6082677768
C       -0.9473420033    0.6714716620    0.9257160799
C       -0.4781501192    0.9885710275   -0.5232847563
N        0.9298697169    1.4131662555   -0.5480236805
H        2.6901386551    0.3810103534   -0.3078119447
H        1.1778101839   -1.8654552232   -0.0864898221
H       -1.1701527542   -1.0615005061   -1.3601643134
H       -1.8923147173    1.0736028320    1.2709676072
H       -1.2145241650    1.6132298483   -1.0160210984
C       -0.5190012362   -0.7102497198    0.9111187752
H       -0.4419150315   -1.4365118258    1.7064680930
13   
From optimize.out: Frame 17 / 24, Energy=    -286.8363609249
C        1.5940848195    0.3593248949   -0.2974206971
C        0.7919673228   -0.8537385672   -0.0950372855
C       -0.5542609855   -0.5868038721   -0.6364404905
C       -0.9036894223    0.7066172259    0.9581869478
C       -0.4952996223    0.9969070147   -0.4997558563
N        0.9241439813    1.4148257023   -0.5710677214
H        2.6803496040    0.3935780682   -0.2459452479
H        1.1910361286   -1.8606585627   -0.0796612985
H       -1.1654692747   -1.1269110242   -1.3608305554
H       -1.8433817170    1.0806004413    1.3484880868
H       -1.2020568962    1.6248458629   -1.0350055873
C       -0.5043013607   -0.6875315698    0.8794426539
H       -0.5131225773   -1.4610556143    1.6350470514
13   
From optimize.out: Frame 23 / 24, Energy=    -286.8364925738
C        1.5908247925    0.3654593407   -0.3131034960
C        0.7847347072   -0.8548790972   -0.0870479599
C       -0.5641984155   -0.5834285343   -0.6505000897
C       -0.8547723066    0.7325899391    0.9828028682
C       -0.5080394111    1.0035582910   -0.4913240286
N        0.9128041810    1.4144640013   -0.5923634515
H        2.6753023454    0.4062211864   -0.2219205278
H        1.2014416750   -1.8559378006   -0.0831830754
H       -1.1554943149   -1.1766447738   -1.3446806815
H       -1.7895747492    1.0712042296    1.4170710193
H       -1.1893402130    1.6369520579   -1.0560887234
C       -0.4714362511   -0.6763153256    0.8694668259
H       -0.6322520397   -1.4832435146    1.5708713203
13   
From optimize.out: Frame 1 / 2, Energy=    -286.8364833336
C        1.5870793774    0.3753843937   -0.3119053564
C        0.7820645318   -0.8578262721   -0.0688868138
C       -0.5627703348   -0.5794053137   -0.6571102005
C       -0.8325735059    0.7413699577    0.9848007507
C       -0.5271771098    0.9883395933   -0.4982636290
N        0.8917918590    1.4118715522   -0.5988534640
H        2.6718673927    0.4219606112   -0.2217395189
H        1.2115170854   -1.8547515029   -0.0957786751
H       -1.1230205578   -1.1920600677   -1.3575009313
H       -1.7091975256    1.1071311352    1.5074004879
H       -1.1954027774    1.6214851215   -1.0817205603
C       -0.4584914177   -0.6818767224    0.8724562960
H       -0.7356870172   -1.5016224859    1.5271016146
