13   
From optimize.out: Frame 42 / 43, Energy=    -286.8383083154
C        1.5477255952    0.2440207351   -0.2492566558
C        0.5831869504   -0.9256665191   -0.0963448637
C       -0.7104209497   -0.3606046263   -0.7864160072
C       -1.1188234174    0.1997346509    0.5899274195
C       -0.4427073897    1.0830013274   -0.5527709326
N        0.9655620747    1.3692773527   -0.4535485947
H        2.6184038939    0.1766845043   -0.0637774257
H        0.9616089111   -1.9272756957   -0.3097850380
H       -1.3210858250   -0.8234516527   -1.5561275743
H       -2.0903897486    0.5088980840    0.9634525993
H       -1.0837427485    1.8556698754   -0.9643347462
C       -0.1326904567   -0.6631843765    1.2268954768
H        0.2233731105   -0.7371036596    2.2520863422
13   
From optimize.out: Frame 39 / 43, Energy=    -286.8382999756
C        1.5372969437    0.2484259206   -0.2533037278
C        0.5830082301   -0.9222966062   -0.1003982241
C       -0.6929585731   -0.3664481178   -0.7709794269
C       -1.0961745460    0.2236724221    0.5966798273
C       -0.4435747612    1.0872594021   -0.5525119219
N        0.9681724239    1.3784661802   -0.4580949500
H        2.5949431915    0.1800974964   -0.0482972283
H        0.9165395715   -1.9338784024   -0.3514848903
H       -1.2681139293   -0.8440623029   -1.5631013950
H       -2.0589364424    0.5216687695    0.9909600440
H       -1.1121367267    1.8336572652   -0.9813922928
C       -0.1240108882   -0.6537519278    1.2289667274
H        0.1959455062   -0.7528100990    2.2629574584
13   
From optimize.out: Frame 36 / 43, Energy=    -286.8382878253
C        1.5471295116    0.2551890624   -0.2559513380
C        0.5923608051   -0.9171100031   -0.1006599040
C       -0.6910042973   -0.3583103377   -0.7845980705
C       -1.0854748825    0.2621303580    0.6008489266
C       -0.4465370159    1.0883533002   -0.5505941344
N        0.9780497823    1.3832632884   -0.4691654550
H        2.6121071284    0.1896686018   -0.0563456252
H        0.9638064361   -1.9220846847   -0.3182554991
H       -1.3312926052   -0.8627404156   -1.4961873454
H       -2.0728928504    0.5116080318    0.9693781661
H       -1.0942393384    1.8450468394   -0.9904348425
C       -0.1368811668   -0.6641379648    1.2093557368
H        0.1648684930   -0.8108760761    2.2426093846
13   
From optimize.out: Frame 34 / 43, Energy=    -286.8382716717
C        1.5570925618    0.2693629316   -0.2559846577
C        0.6099368440   -0.9063686680   -0.0950489310
C       -0.6789860234   -0.3618090151   -0.7968417939
C       -1.0686559038    0.3110532031    0.6221925404
C       -0.4495461568    1.0794498473   -0.5537824279
N        0.9855296449    1.3934818952   -0.4800691089
H        2.6313194557    0.2077561012   -0.0844906947
H        1.0060703779   -1.9077454960   -0.2775178338
H       -1.3747495726   -0.8761299369   -1.4494561791
H       -2.0715568239    0.5369756650    0.9709182944
H       -1.0911458727    1.8320922191   -1.0039264735
C       -0.1690858272   -0.6887268044    1.1861935281
H        0.1137772960   -0.8893919419    2.2178137375
13   
From optimize.out: Frame 31 / 43, Energy=    -286.8382069164
C        1.5619491020    0.2877874915   -0.2531063031
C        0.6337975643   -0.8962448277   -0.0829471359
C       -0.6515707064   -0.3798173428   -0.7935392866
C       -1.0446862774    0.3580296968    0.6562444754
C       -0.4547015347    1.0646769002   -0.5609610179
N        0.9818844883    1.4049008093   -0.4871862309
H        2.6437010771    0.2304014408   -0.1371912910
H        1.0297386863   -1.9012010018   -0.2403063582
H       -1.3650694310   -0.8755736596   -1.4412229848
H       -2.0452904108    0.6057485610    0.9988575942
H       -1.1172652018    1.7953072745   -1.0172232586
C       -0.2186944135   -0.7233861919    1.1645790598
H        0.0462070576   -0.9706291504    2.1940027377
13   
From optimize.out: Frame 28 / 43, Energy=    -286.8380043374
C        1.5680411265    0.3067817851   -0.2496572412
C        0.6612728568   -0.8864423535   -0.0691740942
C       -0.6247720336   -0.4008887310   -0.7717237047
C       -1.0232248232    0.3948963310    0.6857743719
C       -0.4552121036    1.0497336989   -0.5701328872
N        0.9738425810    1.4148800417   -0.4917779589
H        2.6549105979    0.2557008712   -0.1982256035
H        1.0522157779   -1.8948641462   -0.2081846818
H       -1.3549659492   -0.8640547537   -1.4256495643
H       -2.0208947119    0.6759496224    1.0128604751
H       -1.1399540911    1.7567790011   -1.0306213527
C       -0.2691412872   -0.7569034282    1.1456145142
H       -0.0221179403   -1.0515679389    2.1708977272
13   
From optimize.out: Frame 25 / 43, Energy=    -286.8363486802
C        1.5767172986    0.3261046741   -0.2468321703
C        0.6920615782   -0.8759442303   -0.0569454676
C       -0.5970967344   -0.4236256351   -0.7347196127
C       -1.0078764034    0.4246036507    0.7142002296
C       -0.4506702830    1.0336871465   -0.5823873267
N        0.9599773510    1.4221806800   -0.4935983966
H        2.6647627545    0.2834540662   -0.2626442677
H        1.0729449811   -1.8874838340   -0.1897527893
H       -1.3444450369   -0.8467507551   -1.3972688199
H       -2.0019253516    0.7453552774    1.0158057238
H       -1.1542180526    1.7179770808   -1.0480162054
C       -0.3195951615   -0.7871131326    1.1324738808
H       -0.0906369403   -1.1324449885    2.1496852218
13   
From optimize.out: Frame 15 / 43, Energy=    -286.8332058640
C        1.5898764916    0.3460990324   -0.2452865305
C        0.7252494910   -0.8637616955   -0.0469775828
C       -0.5679721362   -0.4467164229   -0.6910731585
C       -0.9995288759    0.4485726776    0.7462435030
C       -0.4429922425    1.0169136056   -0.5996477779
N        0.9389654849    1.4255336738   -0.4942885778
H        2.6746566012    0.3101388332   -0.3277989631
H        1.0924366931   -1.8778869499   -0.1862483104
H       -1.3316592397   -0.8260525042   -1.3617496704
H       -1.9881324904    0.8103714651    1.0188393625
H       -1.1593232310    1.6808873761   -1.0725904093
C       -0.3702880815   -0.8126797388    1.1281778221
H       -0.1612884646   -1.2114193524    2.1324002931
13   
From optimize.out: Frame 12 / 43, Energy=    -286.8185238991
C        1.6066395897    0.3685525864   -0.2439960234
C        0.7577797622   -0.8496541003   -0.0358679566
C       -0.5388914106   -0.4674882335   -0.6510920669
C       -0.9906512231    0.4616804373    0.7805406310
C       -0.4344734604    0.9996353796   -0.6257214370
N        0.9098746023    1.4272266286   -0.4948131241
H        2.6828838363    0.3318832837   -0.3963222501
H        1.1099674704   -1.8656780648   -0.1891965668
H       -1.3172856762   -0.7953680372   -1.3308442282
H       -1.9695324659    0.8664781714    1.0284485127
H       -1.1596619612    1.6457231643   -1.1056385338
C       -0.4203291485   -0.8368037959    1.1370663137
H       -0.2363199149   -1.2861874195    2.1274367295
13   
From optimize.out: Frame 9 / 43, Energy=    -286.7908775422
C        1.6245918527    0.3962404106   -0.2421856553
C        0.7843588471   -0.8340755347   -0.0194283798
C       -0.5101981019   -0.4811414693   -0.6184593686
C       -0.9784355393    0.4609793901    0.8081259742
C       -0.4255574848    0.9838408636   -0.6602889563
N        0.8714123111    1.4322818576   -0.4927782062
H        2.6850653006    0.3441620761   -0.4729049330
H        1.1182462171   -1.8514730468   -0.1933513351
H       -1.3002376224   -0.7500533095   -1.3061697861
H       -1.9455622484    0.9074208714    1.0349857036
H       -1.1558765882    1.6136030918   -1.1487989070
C       -0.4620944096   -0.8646796265    1.1629988403
H       -0.3057125340   -1.3571055744    2.1482550093
13   
From optimize.out: Frame 6 / 43, Energy=    -286.7513092227
C        1.6467030150    0.4292516276   -0.2393957718
C        0.8025076491   -0.8166083150    0.0026728938
C       -0.4808033993   -0.4864353104   -0.5910645803
C       -0.9671646528    0.4593630017    0.8241645362
C       -0.4198047952    0.9732440171   -0.6969337283
N        0.8197579035    1.4457068117   -0.4916710460
H        2.6837784037    0.3393039253   -0.5490414095
H        1.1121996730   -1.8348697566   -0.1954739503
H       -1.2765775710   -0.7001304860   -1.2817215877
H       -1.9265855774    0.9366540057    1.0298540204
H       -1.1513794556    1.5848481914   -1.1997323270
C       -0.4887890790   -0.8963302527    1.1969328969
H       -0.3538421140   -1.4339974598    2.1914100536
13   
From optimize.out: Frame 3 / 43, Energy=    -286.6925010231
C        1.6742728985    0.4606271056   -0.2374353093
C        0.8133388516   -0.8028037317    0.0257613889
C       -0.4521020587   -0.4855354869   -0.5693324731
C       -0.9586074522    0.4734567288    0.8259332992
C       -0.4248799790    0.9678344047   -0.7280873775
N        0.7490614794    1.4596918277   -0.5008593549
H        2.6897458692    0.3263095501   -0.6050581415
H        1.0939430607   -1.8196393871   -0.1921663145
H       -1.2449757221   -0.6545681270   -1.2551054835
H       -1.9162182520    0.9712908026    1.0096239967
H       -1.1538323986    1.5589306252   -1.2461913183
C       -0.4982020750   -0.9293580006    1.2261612769
H       -0.3715442219   -1.5262363113    2.2467558109
13   
From optimize.out: Frame 1 / 43, Energy=    -286.6162339899
C        1.7021325051    0.4806434346   -0.2524380598
C        0.8286201812   -0.7963192497    0.0291734934
C       -0.4525469220   -0.4727486075   -0.5403382141
C       -0.9583922643    0.5018549012    0.8304882345
C       -0.4219812995    0.9527573324   -0.7283768704
N        0.7325209402    1.4526146312   -0.5221353768
H        2.7136353066    0.3268878359   -0.6396413859
H        1.0883680089   -1.8323922028   -0.1544807052
H       -1.1958616666   -0.6325074560   -1.2631546883
H       -1.9161014937    0.9978896533    1.0192288400
H       -1.1889883808    1.5227936883   -1.2285662063
C       -0.5218032583   -0.9271935179    1.2364128633
H       -0.4096016568   -1.5742804431    2.2138280758
13   
C6H6N->C6H6N atoms 1-13 frame 245 charge +0.000 sz -1.000 sz^2 0.623
C        1.7307426694    0.4903542523   -0.2766080149
C        0.8449842194   -0.7961021381    0.0183161125
C       -0.4729978356   -0.4506622621   -0.5093552760
C       -0.9637098772    0.5336334886    0.8428742368
C       -0.4124869732    0.9386718851   -0.7082643201
N        0.7638101667    1.4419467626   -0.5442471436
H        2.7492009997    0.3378954122   -0.6548822356
H        1.0950868305   -1.8605542425   -0.1039890800
H       -1.1564713434   -0.6522078450   -1.2967873285
H       -1.9195689006    1.0129076873    1.0522550382
H       -1.2373482277    1.4923038892   -1.1746334614
C       -0.5550925458   -0.9052703783    1.2371736005
H       -0.4661491820   -1.5829165113    2.1181478719
13   
From optimize.out: Frame 1 / 24, Energy=    -286.6359586858
C        1.7190762302    0.4756580688   -0.2899658852
C        0.8460703896   -0.8016465414    0.0019322265
C       -0.4903944683   -0.4485020494   -0.5026217300
C       -0.9695495382    0.5431760899    0.8525777347
C       -0.4045537235    0.9480349084   -0.6860997167
N        0.8148781221    1.4444481126   -0.5556733841
H        2.7486556072    0.3457124235   -0.6326948320
H        1.1069104963   -1.8688083945   -0.0816262246
H       -1.1541139068   -0.7090284852   -1.3177886403
H       -1.9285588964    1.0020958085    1.0770003523
H       -1.2428605393    1.5056537792   -1.1307612649
C       -0.5636333822   -0.8776021242    1.2161168571
H       -0.4819263907   -1.5591915960    2.0496045074
13   
From optimize.out: Frame 4 / 24, Energy=    -286.7306690275
C        1.6754023495    0.4340114691   -0.2816647926
C        0.8350935393   -0.8091075720   -0.0172391979
C       -0.5050468096   -0.4697909705   -0.5198533914
C       -0.9756818800    0.5454567544    0.8554167977
C       -0.4097283270    0.9674430646   -0.6582165016
N        0.8655853644    1.4377070906   -0.5537032858
H        2.7227764434    0.3488061751   -0.5662126864
H        1.1261807241   -1.8598600096   -0.0846298412
H       -1.1754901267   -0.7784754572   -1.3202689910
H       -1.9404511395    0.9858243444    1.0938073033
H       -1.2247889151    1.5455810112   -1.0961269503
C       -0.5458258581   -0.8388035782    1.1542739497
H       -0.4480253647   -1.5087923221    1.9944175875
13   
From optimize.out: Frame 6 / 24, Energy=    -286.7729725424
C        1.6458910562    0.4009927669   -0.2723178000
C        0.8258500486   -0.8191418797   -0.0324141492
C       -0.5165435877   -0.4978982694   -0.5352555896
C       -0.9795105105    0.5707318447    0.8634031776
C       -0.4237352536    0.9782814516   -0.6219540171
N        0.8979887905    1.4280849057   -0.5460843287
H        2.7090277292    0.3559888115   -0.4967489900
H        1.1423520820   -1.8579508311   -0.0842559652
H       -1.1854828529   -0.8550363735   -1.3222635874
H       -1.9446739550    0.9983253733    1.1188417256
H       -1.2181084425    1.5728415426   -1.0617432544
C       -0.5316196816   -0.8019354376    1.0774500439
H       -0.4214354229   -1.4732839050    1.9133427346
13   
From optimize.out: Frame 9 / 24, Energy=    -286.8138878907
C        1.6265787186    0.3779031211   -0.2670377428
C        0.8178812253   -0.8310856218   -0.0495957221
C       -0.5240898759   -0.5311344643   -0.5554319637
C       -0.9793063398    0.6068287986    0.8800146771
C       -0.4428775270    0.9824497275   -0.5832922294
N        0.9191245666    1.4191783107   -0.5358424382
H        2.7011482722    0.3643389511   -0.4302559949
H        1.1554925563   -1.8606984361   -0.0864095739
H       -1.1822834832   -0.9355395085   -1.3331982947
H       -1.9385047544    1.0282330757    1.1605856359
H       -1.2180947428    1.5909970721   -1.0308735260
C       -0.5248801997   -0.7654018313    1.0022016689
H       -0.4101884163   -1.4460691947    1.8291355038
13   
From optimize.out: Frame 12 / 24, Energy=    -286.8306032373
C        1.6122392567    0.3616646280   -0.2703624010
C        0.8095176061   -0.8442581262   -0.0718665344
C       -0.5323513869   -0.5625797951   -0.5862037688
C       -0.9683001988    0.6465208454    0.9048158548
C       -0.4651398917    0.9846720845   -0.5442754625
N        0.9299306131    1.4133253760   -0.5357001697
H        2.6959896353    0.3735932492   -0.3572542846
H        1.1687747845   -1.8657647895   -0.0893486831
H       -1.1732513699   -1.0150503244   -1.3522618667
H       -1.9182615590    1.0608616267    1.2213802079
H       -1.2194087717    1.6057069607   -1.0109215041
C       -0.5226640876   -0.7291889469    0.9392998864
H       -0.4170746302   -1.4295027884    1.7526987256
13   
From optimize.out: Frame 15 / 24, Energy=    -286.8360682727
C        1.5994969353    0.3565277025   -0.2842355661
C        0.7988634851   -0.8526796099   -0.0913579545
C       -0.5452507820   -0.5827056314   -0.6202708428
C       -0.9363644967    0.6845594557    0.9368354952
C       -0.4850746721    0.9907212128   -0.5119676369
N        0.9298395053    1.4132528489   -0.5541623593
H        2.6870425454    0.3852253470   -0.2808112759
H        1.1827879128   -1.8651891060   -0.0850991142
H       -1.1681651461   -1.0861446089   -1.3648112704
H       -1.8787651278    1.0800323983    1.2973165052
H       -1.2118377705    1.6173586463   -1.0186646102
C       -0.5171645640   -0.7003413493    0.8958248772
H       -0.4554078247   -1.4406173061    1.6814037526
13   
From optimize.out: Frame 17 / 24, Energy=    -286.8363609249
C        1.5916117001    0.3607860364   -0.3031553517
C        0.7888592341   -0.8541539055   -0.0967283037
C       -0.5582631410   -0.5886359318   -0.6441221476
C       -0.8888118949    0.7165949863    0.9680063286
C       -0.5000076356    0.9998137024   -0.4940380580
N        0.9215136715    1.4157157991   -0.5784773675
H        2.6772714420    0.3976813477   -0.2292412226
H        1.1950046982   -1.8584613259   -0.0772248088
H       -1.1638782639   -1.1456293773   -1.3593974932
H       -1.8273539460    1.0805045006    1.3719823881
H       -1.1974557150    1.6283900352   -1.0425260943
C       -0.4984686783   -0.6817889520    0.8716555955
H       -0.5400214712   -1.4708169153    1.6132665351
13   
From optimize.out: Frame 20 / 24, Energy=    -286.8364661177
C        1.5905434339    0.3674989652   -0.3166962620
C        0.7831800893   -0.8550900313   -0.0831567825
C       -0.5663842909   -0.5813074642   -0.6532379564
C       -0.8414679796    0.7387504612    0.9886324393
C       -0.5112249311    1.0050783733   -0.4902002985
N        0.9093346512    1.4141263889   -0.5975102713
H        2.6745281958    0.4098787831   -0.2184100648
H        1.2041778745   -1.8548201502   -0.0855830406
H       -1.1517865736   -1.1889053344   -1.3392171479
H       -1.7748956808    1.0671462186    1.4348313962
H       -1.1860319901    1.6404157931   -1.0614953557
C       -0.4607833749   -0.6742985868    0.8684034047
H       -0.6691894235   -1.4884734166    1.5536399395
13   
From optimize.out: Frame 23 / 24, Energy=    -286.8364925738
C        1.5871009538    0.3755264582   -0.3116244312
C        0.7821350691   -0.8577647211   -0.0688524155
C       -0.5626290120   -0.5793790896   -0.6572543254
C       -0.8327764020    0.7412134938    0.9847469708
C       -0.5271697749    0.9883524455   -0.4982458957
N        0.8917849901    1.4119936331   -0.5985757953
H        2.6718718654    0.4221695134   -0.2212875333
H        1.2116614490   -1.8546572397   -0.0957778496
H       -1.1227289481   -1.1920031248   -1.3577921109
H       -1.7095061515    1.1068612456    1.5072487067
H       -1.1953502009    1.6215094683   -1.0817421650
C       -0.4585775688   -0.6819958159    0.8723179200
H       -0.7358162694   -1.5018262667    1.5268389245
