13   
From optimize.out: Frame 1 / 21, Energy=    -286.5896370306
C        1.6743008766    0.2996164537   -2.3316921139
C        1.2703594332   -1.0973644381   -2.3052671545
C       -0.1160931123   -1.2729716452   -2.4113758165
C       -1.4042992337    0.4471441171   -0.8648241519
C       -0.8551435909    1.0573234632   -2.0884924270
N        0.8752345605    1.3817837221   -2.7804458413
H        2.7900299037    0.3966411484   -2.1973751509
H        1.8870516106   -1.7863755108   -1.7284759913
H       -0.4318328172   -1.5696865181   -3.4042696204
H       -1.2148914524    0.8811278605    0.1447918478
H       -1.7008061418    1.4941069935   -2.6185020738
C       -1.5663446149   -0.9008307177   -1.1028417785
H       -1.9144987475   -1.7598744657   -0.3457620661
13   
From optimize.out: Frame 3 / 21, Energy=    -286.6490635098
C        1.6464770319    0.3143419501   -2.3028206368
C        1.2201594159   -1.0609663993   -2.2835385000
C       -0.1748365747   -1.2572624571   -2.4029572668
C       -1.3493383129    0.4101479916   -0.8826111777
C       -0.8057634813    1.0208974090   -2.1154226758
N        0.8699839093    1.3782625463   -2.7348207999
H        2.7504960562    0.4303136399   -2.1716207466
H        1.8415138698   -1.7607151919   -1.7228242193
H       -0.5311142293   -1.5427279736   -3.3881668056
H       -1.1855470508    0.8640999466    0.1158994846
H       -1.6228756559    1.4593507747   -2.6877726553
C       -1.5138924461   -0.9251554694   -1.0982430764
H       -1.8521958582   -1.7599463038   -0.3596332627
13   
From optimize.out: Frame 4 / 21, Energy=    -286.6973519848
C        1.6156152175    0.3237620144   -2.2716413355
C        1.1745282172   -1.0296705345   -2.2631749432
C       -0.2304892756   -1.2381007709   -2.3933544731
C       -1.2957024609    0.3797546156   -0.9025436365
C       -0.7548473477    0.9883465430   -2.1421165756
N        0.8476690291    1.3745369319   -2.6935924756
H        2.7099933649    0.4573419742   -2.1411938658
H        1.7982373024   -1.7435830379   -1.7226924003
H       -0.6189487794   -1.5121276335   -3.3714827773
H       -1.1614863464    0.8569829810    0.0838732914
H       -1.5475847078    1.4268098360   -2.7476161575
C       -1.4566737189   -0.9494159768   -1.0981042294
H       -1.7872438205   -1.7639964795   -0.3708927599
13   
From optimize.out: Frame 5 / 21, Energy=    -286.7419989578
C        1.5845315339    0.3287273463   -2.2390105038
C        1.1357142154   -1.0030242026   -2.2436916540
C       -0.2807482552   -1.2045823783   -2.3827642985
C       -1.2432295656    0.3560938494   -0.9169005676
C       -0.7076049445    0.9492142112   -2.1707572827
N        0.8075256256    1.3541647605   -2.6585672522
H        2.6698113875    0.4834059031   -2.1068409939
H        1.7530482622   -1.7358083056   -1.7210913478
H       -0.6900950824   -1.4656169733   -3.3570694177
H       -1.1272348856    0.8559160219    0.0565542811
H       -1.4847014027    1.3807473442   -2.8002312950
C       -1.3997174395   -0.9634805818   -1.1035363442
H       -1.7242327752   -1.7651165317   -0.3906256618
13   
From optimize.out: Frame 6 / 21, Energy=    -286.7798769413
C        1.5608229453    0.3308074600   -2.2075864387
C        1.1042657087   -0.9841880158   -2.2267840537
C       -0.3257843861   -1.1640411043   -2.3739503781
C       -1.1963164740    0.3406445575   -0.9249258948
C       -0.6647423610    0.9075057454   -2.1989726777
N        0.7617572874    1.3299724656   -2.6215695692
H        2.6369812519    0.5099973463   -2.0733842461
H        1.7124223204   -1.7406703834   -1.7276214358
H       -0.7534404264   -1.4102859997   -3.3457859603
H       -1.1034535626    0.8672631459    0.0335154743
H       -1.4312137397    1.3247502810   -2.8508815599
C       -1.3438102758   -0.9728610921   -1.1074690895
H       -1.6644216144   -1.7682539434   -0.4091165088
13   
From optimize.out: Frame 7 / 21, Energy=    -286.8081201075
C        1.5494631737    0.3295606665   -2.1803796756
C        1.0808968790   -0.9722447363   -2.2148717853
C       -0.3648140585   -1.1136455270   -2.3699770816
C       -1.1604265270    0.3330925657   -0.9260052252
C       -0.6303470823    0.8593092924   -2.2250330938
N        0.7219418866    1.3057083968   -2.5785736797
H        2.6157806947    0.5342176811   -2.0429124878
H        1.6767582897   -1.7574171049   -1.7467545993
H       -0.8095846441   -1.3486101638   -3.3386734550
H       -1.1018581907    0.8919960989    0.0135711277
H       -1.3892872603    1.2579277975   -2.8985175642
C       -1.2894017052   -0.9778024648   -1.1050852156
H       -1.6060547817   -1.7714520388   -0.4213196028
13   
From optimize.out: Frame 8 / 21, Energy=    -286.8275226693
C        1.5553870394    0.3280067400   -2.1625585066
C        1.0645920769   -0.9618576997   -2.2113976309
C       -0.3958849831   -1.0504815640   -2.3695474680
C       -1.1452433304    0.3303283621   -0.9210043598
C       -0.6083494556    0.7984736908   -2.2450648816
N        0.7092134705    1.2937041671   -2.5322225360
H        2.6142310684    0.5477902602   -2.0216580833
H        1.6448250116   -1.7789098493   -1.7807774341
H       -0.8584583005   -1.2826112491   -3.3320691960
H       -1.1330807115    0.9261037416   -0.0052925236
H       -1.3585733604    1.1784411274   -2.9406400131
C       -1.2434297230   -0.9805162837   -1.0909825756
H       -1.5521621284   -1.7778309803   -0.4213171297
13   
From optimize.out: Frame 9 / 21, Energy=    -286.8427474377
C        1.5637306730    0.3260792782   -2.1491760236
C        1.0526610281   -0.9544866041   -2.2112070327
C       -0.4201968662   -0.9830658100   -2.3720543011
C       -1.1381324450    0.3319841001   -0.9124124556
C       -0.5935898048    0.7295406072   -2.2607508810
N        0.7047108500    1.2849741475   -2.4861119229
H        2.6163427260    0.5576491586   -2.0054725842
H        1.6156969982   -1.8009158484   -1.8171855227
H       -0.8971196479   -1.2213096368   -3.3277689446
H       -1.1700750922    0.9612644444   -0.0224286796
H       -1.3332990907    1.0991784478   -2.9746507254
C       -1.2050343600   -0.9785371222   -1.0757043827
H       -1.5026282947   -1.7817146994   -0.4196088821
13   
From optimize.out: Frame 10 / 21, Energy=    -286.8540420596
C        1.5700109556    0.3208933952   -2.1546834950
C        1.0487510914   -0.9598785785   -2.2142850260
C       -0.4338290222   -0.9450411658   -2.3780471941
C       -1.1435733110    0.3420269061   -0.9066407665
C       -0.5834185967    0.6922997832   -2.2667460499
N        0.7005868818    1.2889949082   -2.4273951710
H        2.6185889871    0.5613808493   -2.0116122202
H        1.6038742480   -1.8232974161   -1.8485734924
H       -0.9118843638   -1.2308752452   -3.3222376545
H       -1.2242273604    0.9896218888   -0.0354117794
H       -1.3099471198    1.0863866286   -2.9832001293
C       -1.1772699049   -0.9731656710   -1.0683296903
H       -1.4645958112   -1.7787058196   -0.4173696698
13   
From optimize.out: Frame 11 / 21, Energy=    -286.8625629266
C        1.5821922237    0.3127965824   -2.1699368898
C        1.0541515894   -0.9718702885   -2.2215158934
C       -0.4370961309   -0.9237664494   -2.3761397135
C       -1.1661100733    0.3571364293   -0.9007102279
C       -0.5788169962    0.6861389517   -2.2620920409
N        0.7057444355    1.2943785719   -2.3612951480
H        2.6315676422    0.5561022209   -2.0421988754
H        1.6095864183   -1.8494914030   -1.8955536586
H       -0.9088245696   -1.2702902955   -3.3045316528
H       -1.3147348807    1.0129763490   -0.0468582259
H       -1.2886124679    1.1047488565   -2.9842965171
C       -1.1566977687   -0.9642810155   -1.0589406690
H       -1.4392827479   -1.7739380467   -0.4104628261
13   
From optimize.out: Frame 12 / 21, Energy=    -286.8687055824
C        1.5931933891    0.3077333368   -2.1749051357
C        1.0639063442   -0.9812683226   -2.2403545983
C       -0.4336445085   -0.9039841385   -2.3659267411
C       -1.1928352318    0.3717628780   -0.8979539317
C       -0.5734677678    0.6682613761   -2.2612691192
N        0.7116943053    1.2941269462   -2.2913806787
H        2.6453024025    0.5515426618   -2.0648655748
H        1.6240795130   -1.8755408796   -1.9794552573
H       -0.9033717849   -1.3012375944   -3.2753272174
H       -1.4121765713    1.0409907785   -0.0717701595
H       -1.2594886961    1.1203696312   -2.9881082011
C       -1.1449857635   -0.9537003627   -1.0358859453
H       -1.4251389562   -1.7684158477   -0.3873297782
13   
From optimize.out: Frame 13 / 21, Energy=    -286.8723117886
C        1.6073457519    0.3016761941   -2.1990044966
C        1.0746694549   -0.9918758788   -2.2481406550
C       -0.4236438481   -0.8952049886   -2.3617167761
C       -1.2188589400    0.3886805060   -0.8848970454
C       -0.5755883791    0.6974111510   -2.2395622194
N        0.7265504548    1.2967165947   -2.2421621428
H        2.6633729390    0.5409982814   -2.1081985390
H        1.6344005721   -1.8968633165   -2.0318348305
H       -0.8769288879   -1.3748455000   -3.2395265396
H       -1.5097433031    1.0507841549   -0.0754641487
H       -1.2430402454    1.1543968175   -2.9813311543
C       -1.1397550138   -0.9388861207   -1.0307129214
H       -1.4257138816   -1.7623474318   -0.3919808694
13   
From optimize.out: Frame 14 / 21, Energy=    -286.8745636639
C        1.6186174580    0.3001845660   -2.1935024885
C        1.0867837837   -0.9987246186   -2.2755333488
C       -0.4124434869   -0.8925396259   -2.3345988458
C       -1.2548921137    0.4008449915   -0.8954642341
C       -0.5696483392    0.6749611141   -2.2421006440
N        0.7376278613    1.2963215116   -2.1706165438
H        2.6800167102    0.5311467701   -2.1206339579
H        1.6560622056   -1.9143545011   -2.1555812464
H       -0.8800184726   -1.3932914655   -3.1927682365
H       -1.6143034355    1.0770126540   -0.1260734904
H       -1.2066755615    1.1752688094   -2.9826511504
C       -1.1342710737   -0.9296959641   -0.9955671315
H       -1.4137888619   -1.7564937782   -0.3494410201
13   
From optimize.out: Frame 16 / 21, Energy=    -286.8748748160
C        1.6266779628    0.2944566685   -2.1855346217
C        1.1023781231   -1.0026951986   -2.2807432219
C       -0.3866507038   -0.8886524739   -2.3256089512
C       -1.2595320958    0.4155509197   -0.8862963246
C       -0.5841779962    0.6789844194   -2.2367308728
N        0.7359987265    1.2808873961   -2.1567878649
H        2.6888172958    0.5260087363   -2.1122441241
H        1.6714715989   -1.9255869988   -2.2679024081
H       -0.8535884416   -1.4597617654   -3.1389659097
H       -1.6769598689    1.0961384489   -0.1499697736
H       -1.2003516130    1.2126641461   -2.9704765206
C       -1.1371368564   -0.9126726660   -0.9793557250
H       -1.4338794575   -1.7446811691   -0.3439160203
13   
From optimize.out: Frame 18 / 21, Energy=    -286.8753728372
C        1.6289443473    0.2948319201   -2.1795128549
C        1.0968253558   -1.0013836349   -2.2858845595
C       -0.3929560712   -0.8909750699   -2.3164652702
C       -1.2776943110    0.4140721034   -0.8960336285
C       -0.5762171350    0.6793204081   -2.2285046056
N        0.7484242794    1.2912837304   -2.1353068600
H        2.6924710389    0.5187947880   -2.1059526227
H        1.6704560929   -1.9220134283   -2.2869592651
H       -0.8814034959   -1.4117148804   -3.1506993667
H       -1.6916434401    1.0918378899   -0.1552940165
H       -1.1868778198    1.1607827757   -3.0025169802
C       -1.1299738503   -0.9139208479   -0.9704827577
H       -1.4072883171   -1.7402752910   -0.3209195507
13   
From optimize.out: Frame 20 / 21, Energy=    -286.8754792730
C        1.6246481911    0.2962261879   -2.1749029327
C        1.0937030057   -0.9987513717   -2.2866293309
C       -0.3949567587   -0.8895309906   -2.3236723299
C       -1.2700107386    0.4150134366   -0.8950370035
C       -0.5759855097    0.6779351055   -2.2322493183
N        0.7436516381    1.2910942363   -2.1396374490
H        2.6874953816    0.5207706434   -2.0943576047
H        1.6675594775   -1.9189875417   -2.2926475622
H       -0.8778647471   -1.4343669078   -3.1456512710
H       -1.6797021113    1.0950211752   -0.1541325195
H       -1.1851718720    1.1704732038   -3.0000439663
C       -1.1315147164   -0.9132773427   -0.9720631729
H       -1.4087845663   -1.7409793710   -0.3235078773
