13   
From optimize.out: Frame 1 / 23, Energy=    -286.6392649246
C        1.2625624710    0.1812656929   -1.0995116696
C        0.4717282804   -1.1722486406   -1.0683553808
C       -0.8315019382   -0.5947928336   -2.2608565023
C       -1.1739242036   -0.0377968641   -0.4279738682
C       -0.6681825465    0.8877224071   -1.8403004471
N        0.9144030829    1.3247088567   -1.5144951787
H        2.0634561620    0.1050561221   -0.3162890075
H        1.1960142664   -2.0360153149   -1.0594182242
H       -1.2431354415   -1.6057855520   -2.2817441497
H       -2.0306399820    0.1896045413    0.1935550601
H       -1.4336796137    1.6040551649   -2.2545408615
C       -0.0611378711   -0.6701134968    0.2918226591
H        0.3573401161   -0.5356916704    1.2274001805
13   
From optimize.out: Frame 2 / 23, Energy=    -286.6815949414
C        1.2988966065    0.1745754115   -1.0994261539
C        0.4903542826   -1.1554718292   -1.0676457731
C       -0.8207922707   -0.5969040156   -2.2154515499
C       -1.1933428084   -0.0250817647   -0.4366018875
C       -0.6664182391    0.8675896323   -1.8038209111
N        0.8881879799    1.3003067004   -1.5146099462
H        2.1404492998    0.1282734700   -0.3679984395
H        1.1996387972   -2.0166895288   -1.0880792325
H       -1.2403043872   -1.6001925343   -2.2410666702
H       -2.0750052068    0.2141983202    0.1494459652
H       -1.4116107744    1.5809843280   -2.2209709166
C       -0.0973499531   -0.6770228676    0.2676366968
H        0.3105994559   -0.5545969095    1.2278814285
13   
From optimize.out: Frame 3 / 23, Energy=    -286.7175180038
C        1.3182943740    0.1710639731   -1.1010518665
C        0.5022376871   -1.1405864961   -1.0687471721
C       -0.8020209383   -0.6033815184   -2.1662981357
C       -1.1984016953   -0.0116898451   -0.4517837485
C       -0.6566405617    0.8483272432   -1.7653602845
N        0.8463669498    1.2791161180   -1.5110962281
H        2.1830745947    0.1562106754   -0.4089157487
H        1.1927639130   -2.0041716104   -1.1144826218
H       -1.2337860308   -1.5986314156   -2.1930444253
H       -2.1002372757    0.2426709437    0.0974410591
H       -1.3822448174    1.5633342547   -2.1858254914
C       -0.1224385610   -0.6850344352    0.2402899334
H        0.2763351437   -0.5772594746    1.2181673400
13   
From optimize.out: Frame 4 / 23, Energy=    -286.7460598533
C        1.3383552644    0.1740080098   -1.1053436498
C        0.5137302508   -1.1251729288   -1.0675731513
C       -0.7826703335   -0.6139165088   -2.1166668837
C       -1.2027204920    0.0000618726   -0.4667552688
C       -0.6450579017    0.8349958466   -1.7293528837
N        0.8062865734    1.2633057479   -1.5065230514
H        2.2299015421    0.1887846406   -0.4579702196
H        1.1840543227   -1.9957699923   -1.1376190782
H       -1.2336606760   -1.5995013142   -2.1444757604
H       -2.1242573350    0.2671332216    0.0428009982
H       -1.3531438951    1.5528282370   -2.1591683271
C       -0.1459023516   -0.6975340930    0.2218476093
H        0.2383878137   -0.6092543265    1.2160922765
13   
From optimize.out: Frame 5 / 23, Energy=    -286.7674597903
C        1.3592738810    0.1825852491   -1.1126708323
C        0.5261278808   -1.1073068287   -1.0642372180
C       -0.7627762882   -0.6266581730   -2.0673297422
C       -1.2061154604    0.0085945357   -0.4780906584
C       -0.6339774198    0.8270115320   -1.6990805329
N        0.7769396078    1.2546604446   -1.5013103305
H        2.2775546325    0.2222209780   -0.5133122005
H        1.1734291380   -1.9886005187   -1.1559611551
H       -1.2416629833   -1.5986821346   -2.0976452371
H       -2.1469432727    0.2839480825   -0.0097417171
H       -1.3269124818    1.5449573702   -2.1439231600
C       -0.1684377970   -0.7135252868    0.2113887349
H        0.1968033451   -0.6492368377    1.2212066594
13   
From optimize.out: Frame 6 / 23, Energy=    -286.7829940531
C        1.3800698099    0.1939566818   -1.1211873742
C        0.5403391258   -1.0883947948   -1.0578974484
C       -0.7422706464   -0.6388104529   -2.0218718831
C       -1.2086539078    0.0134119073   -0.4836244942
C       -0.6265097714    0.8231954106   -1.6771310457
N        0.7612792709    1.2530684535   -1.4963127661
H        2.3239397454    0.2515980673   -0.5707757088
H        1.1629756764   -1.9827989352   -1.1661205866
H       -1.2584219302   -1.5913697849   -2.0604517454
H       -2.1674907851    0.2912858765   -0.0549399284
H       -1.3083280574    1.5369473263   -2.1403960832
C       -0.1884803938   -0.7302205025    0.2082669547
H        0.1548546459   -0.6919008405    1.2317347196
13   
From optimize.out: Frame 7 / 23, Energy=    -286.7946949883
C        1.3970022468    0.2044580910   -1.1289568008
C        0.5553953594   -1.0723208352   -1.0482677023
C       -0.7203203469   -0.6488153449   -1.9826178852
C       -1.2092604678    0.0153832684   -0.4839242220
C       -0.6226270866    0.8208762945   -1.6623201080
N        0.7529369846    1.2544683054   -1.4923619773
H        2.3634131132    0.2756668034   -0.6253816611
H        1.1548382326   -1.9795254882   -1.1674312777
H       -1.2819938292   -1.5741776251   -2.0407508591
H       -2.1839624226    0.2915187932   -0.0912724305
H       -1.2970435530    1.5272100511   -2.1438645225
C       -0.2033947519   -0.7447177522    0.2109721187
H        0.1183193036   -0.7300561488    1.2454699379
13   
From optimize.out: Frame 8 / 23, Energy=    -286.8040540114
C        1.4096918270    0.2129158002   -1.1351410016
C        0.5701653486   -1.0606786478   -1.0358961582
C       -0.6981827909   -0.6571528466   -1.9484017773
C       -1.2081380848    0.0154896045   -0.4802499366
C       -0.6211746638    0.8179449711   -1.6527062362
N        0.7473575117    1.2560104623   -1.4901255689
H        2.3949685070    0.2952818152   -0.6746102322
H        1.1502916660   -1.9784898204   -1.1617392248
H       -1.3104252358   -1.5467369597   -2.0405124654
H       -2.1962637437    0.2873815998   -0.1192990668
H       -1.2911642067    1.5151108345   -2.1509018701
C       -0.2130713873   -0.7562294804    0.2180092311
H        0.0892480346   -0.7608789199    1.2608669170
13   
From optimize.out: Frame 9 / 23, Energy=    -286.8118048972
C        1.4190808649    0.2197002402   -1.1399643499
C        0.5836798558   -1.0529020778   -1.0213235890
C       -0.6780527820   -0.6644434435   -1.9167382477
C       -1.2060840306    0.0142391262   -0.4735518565
C       -0.6211122473    0.8136576926   -1.6471793072
N        0.7435261883    1.2571605468   -1.4899675780
H        2.4201007965    0.3108834211   -0.7188047075
H        1.1487213947   -1.9789196289   -1.1507308065
H       -1.3402662780   -1.5102427246   -2.0584001056
H       -2.2053686838    0.2799360399   -0.1396704070
H       -1.2892238669    1.5005877776   -2.1600965396
C       -0.2187559415   -0.7650186609    0.2283863360
H        0.0670575120   -0.7846698960    1.2773337686
13   
From optimize.out: Frame 10 / 23, Energy=    -286.8182096327
C        1.4258380854    0.2250709915   -1.1438625144
C        0.5952093555   -1.0478762229   -1.0049998831
C       -0.6622261497   -0.6707852734   -1.8856926292
C       -1.2040181966    0.0118400040   -0.4649155815
C       -0.6216337002    0.8081810757   -1.6448450237
N        0.7411673903    1.2577555369   -1.4917138836
H        2.4403800470    0.3220523666   -0.7593712055
H        1.1485781922   -1.9802860979   -1.1357586172
H       -1.3668224292   -1.4669085153   -2.0921550032
H       -2.2126224859    0.2691143207   -0.1533759726
H       -1.2900672283    1.4845110755   -2.1700578680
C       -0.2214510550   -0.7709584442    0.2414092625
H        0.0509709567   -0.8017424046    1.2946315297
13   
From optimize.out: Frame 11 / 23, Energy=    -286.8233987493
C        1.4306742695    0.2291898538   -1.1472347950
C        0.6043411754   -1.0442629725   -0.9876757584
C       -0.6527389160   -0.6760903810   -1.8543063453
C       -1.2029913599    0.0083046462   -0.4557092775
C       -0.6220328751    0.8023093846   -1.6445134234
N        0.7403520581    1.2578000540   -1.4947283803
H        2.4572995708    0.3283810354   -0.7978801735
H        1.1479334018   -1.9821840612   -1.1183339710
H       -1.3855694690   -1.4205813528   -2.1378286732
H       -2.2194881433    0.2546785485   -0.1619734641
H       -1.2924907693    1.4686089860   -2.1790498969
C       -0.2220647480   -0.7738270292    0.2562297528
H        0.0400785870   -0.8123582994    1.3122970160
13   
From optimize.out: Frame 12 / 23, Energy=    -286.8275404541
C        1.4340766236    0.2318777933   -1.1504417062
C        0.6107787107   -1.0412675200   -0.9703773982
C       -0.6502003015   -0.6801824506   -1.8230234980
C       -1.2039135107    0.0034197411   -0.4472812572
C       -0.6218454187    0.7970974840   -1.6445522301
N        0.7407864213    1.2571929097   -1.4980795039
H        2.4716497391    0.3298694011   -0.8352788420
H        1.1454578120   -1.9843462771   -1.1000590624
H       -1.3934586662   -1.3756619150   -2.1906764077
H       -2.2270171338    0.2371689851   -0.1671959238
H       -1.2953689785    1.4547853432   -2.1852299932
C       -0.2213554549   -0.7735610876    0.2718502875
H        0.0337129398   -0.8164239946    1.3296381453
13   
From optimize.out: Frame 13 / 23, Energy=    -286.8308410056
C        1.4365650688    0.2331434780   -1.1536174256
C        0.6144496735   -1.0382534539   -0.9544274975
C       -0.6540575822   -0.6829441249   -1.7934811652
C       -1.2073747443   -0.0025445196   -0.4404322593
C       -0.6210173861    0.7935957278   -1.6436635846
N        0.7423565909    1.2560738266   -1.5009134715
H        2.4840225377    0.3269256794   -0.8717960987
H        1.1398980808   -1.9867848297   -1.0821958765
H       -1.3885312818   -1.3370468562   -2.2456832507
H       -2.2357441486    0.2178454630   -0.1698270281
H       -1.2981577382    1.4447378449   -2.1872680729
C       -0.2200407561   -0.7702392549    0.2870080539
H        0.0309344678   -0.8145405680    1.3455902867
13   
From optimize.out: Frame 14 / 23, Energy=    -286.8335252334
C        1.4382224532    0.2327683278   -1.1569637206
C        0.6150306005   -1.0349199215   -0.9413252845
C       -0.6629880473   -0.6839541134   -1.7682507247
C       -1.2137016315   -0.0085676923   -0.4353790483
C       -0.6198931422    0.7927537723   -1.6406049687
N        0.7446750672    1.2545198169   -1.5021823762
H        2.4943526879    0.3197225362   -0.9069508930
H        1.1301118755   -1.9896428436   -1.0659289491
H       -1.3684864930   -1.3110047360   -2.2992515789
H       -2.2457555747    0.1988323215   -0.1693657591
H       -1.3006840464    1.4401786490   -2.1837362647
C       -0.2185958622   -0.7635419786    0.3003321362
H        0.0310148953   -0.8071757255    1.3589000418
13   
From optimize.out: Frame 15 / 23, Energy=    -286.8357385311
C        1.4387255880    0.2303097217   -1.1602673357
C        0.6122416801   -1.0321998178   -0.9328210366
C       -0.6763294969   -0.6835211730   -1.7486509542
C       -1.2225872059   -0.0143054335   -0.4318292986
C       -0.6190823715    0.7940495980   -1.6353599866
N        0.7468580109    1.2520020968   -1.5025939027
H        2.5011945962    0.3098752033   -0.9355724378
H        1.1171266160   -1.9929330044   -1.0536210091
H       -1.3340717071   -1.3000433327   -2.3501797101
H       -2.2557500298    0.1845288305   -0.1640053996
H       -1.3031027621    1.4408437455   -2.1748228994
C       -0.2170177050   -0.7544085913    0.3106899714
H        0.0350975693   -0.7942294304    1.3683266091
13   
From optimize.out: Frame 16 / 23, Energy=    -286.8373576279
C        1.4379032297    0.2248741023   -1.1643767443
C        0.6067830120   -1.0326586968   -0.9293798600
C       -0.6925970855   -0.6837337447   -1.7334065770
C       -1.2331141671   -0.0231221159   -0.4294365424
C       -0.6191302933    0.7944770832   -1.6295796305
N        0.7468043556    1.2479522572   -1.5033649307
H        2.5030869342    0.2998069212   -0.9511469595
H        1.1052701909   -1.9971455416   -1.0460762073
H       -1.2919507549   -1.2935995399   -2.4006352971
H       -2.2635265471    0.1789797384   -0.1535195975
H       -1.3065950634    1.4427377607   -2.1624235784
C       -0.2150553573   -0.7456840022    0.3184932680
H        0.0454243284   -0.7729158093    1.3741452667
13   
From optimize.out: Frame 17 / 23, Energy=    -286.8381907666
C        1.4371932754    0.2182509998   -1.1685559107
C        0.5996794178   -1.0340737382   -0.9310881111
C       -0.7096880441   -0.6848727201   -1.7249113851
C       -1.2458738275   -0.0367411530   -0.4282656588
C       -0.6191449477    0.7941334136   -1.6232000821
N        0.7464675701    1.2447955065   -1.5012398368
H        2.5033794268    0.2887753804   -0.9589335434
H        1.0895924570   -2.0038801695   -1.0389544366
H       -1.2443880622   -1.2903115118   -2.4499454381
H       -2.2701670276    0.1764522142   -0.1383612118
H       -1.3114120414    1.4458171717   -2.1456804996
C       -0.2134089981   -0.7377132579    0.3231899670
H        0.0610735838   -0.7406637230    1.3752387574
13   
From optimize.out: Frame 18 / 23, Energy=    -286.8382474373
C        1.4342403176    0.2116862448   -1.1689421820
C        0.5956371621   -1.0411919246   -0.9311939402
C       -0.7158344696   -0.6894039377   -1.7205467429
C       -1.2505134540   -0.0517285202   -0.4273030531
C       -0.6189962027    0.7888517961   -1.6242588829
N        0.7420107941    1.2396727868   -1.5073286379
H        2.4979288433    0.2854699563   -0.9490008466
H        1.0920470401   -2.0077938558   -1.0363532402
H       -1.2309140391   -1.2654791608   -2.4831958182
H       -2.2681004809    0.1826612001   -0.1301205285
H       -1.3174586508    1.4411342814   -2.1374697859
C       -0.2131135638   -0.7411552487    0.3285903627
H        0.0763694858   -0.7127552052    1.3764159058
13   
From optimize.out: Frame 19 / 23, Energy=    -286.8382628305
C        1.4356149537    0.2095955066   -1.1687574599
C        0.5914867387   -1.0376379064   -0.9382573132
C       -0.7188918388   -0.6861868676   -1.7329140276
C       -1.2581325291   -0.0561777261   -0.4301084341
C       -0.6180662306    0.7936671758   -1.6174306476
N        0.7458284370    1.2427585833   -1.4928338371
H        2.5009937441    0.2756805164   -0.9540648658
H        1.0748036589   -2.0125273191   -1.0319288701
H       -1.2096524542   -1.2897443644   -2.4908193192
H       -2.2739339616    0.1717891122   -0.1226326366
H       -1.3182571916    1.4517755531   -2.1222676765
C       -0.2134971910   -0.7347189331    0.3236216408
H        0.0850066467   -0.6883049181    1.3676860569
13   
From optimize.out: Frame 20 / 23, Energy=    -286.8383585682
C        1.4354611681    0.2127866084   -1.1653427179
C        0.5946192861   -1.0377247825   -0.9370396999
C       -0.7162530208   -0.6871602726   -1.7294498279
C       -1.2522590022   -0.0520441970   -0.4298889440
C       -0.6175343720    0.7920286226   -1.6232611066
N        0.7468162196    1.2428428367   -1.4990508554
H        2.4993170546    0.2829024596   -0.9442857676
H        1.0842013271   -2.0087484930   -1.0378293391
H       -1.2330557214   -1.2838605410   -2.4749689729
H       -2.2698997132    0.1756287183   -0.1282018864
H       -1.3160288744    1.4473372667   -2.1336852052
C       -0.2141796754   -0.7414820261    0.3235358492
H        0.0820981059   -0.7025377875    1.3687610839
13   
From optimize.out: Frame 21 / 23, Energy=    -286.8383636688
C        1.4339719736    0.2097913239   -1.1667441300
C        0.5933842696   -1.0403725524   -0.9361132696
C       -0.7145253414   -0.6866659938   -1.7302445495
C       -1.2528803481   -0.0551083637   -0.4308380328
C       -0.6181837446    0.7921382570   -1.6220597226
N        0.7443660500    1.2417548935   -1.4947103886
H        2.4976462529    0.2794541986   -0.9449281740
H        1.0869478926   -2.0092888152   -1.0377445026
H       -1.2322766341   -1.2791486499   -2.4784146058
H       -2.2707096619    0.1737673833   -0.1307051155
H       -1.3164578058    1.4481135865   -2.1316581669
C       -0.2141437453   -0.7411847724    0.3247088467
H        0.0861636247   -0.6932820829    1.3687444214
13   
From optimize.out: Frame 22 / 23, Energy=    -286.8383733493
C        1.4335448918    0.2100684032   -1.1641423099
C        0.5927818881   -1.0404813738   -0.9376718609
C       -0.7166029098   -0.6867265448   -1.7303413507
C       -1.2534269562   -0.0563677702   -0.4308715566
C       -0.6178528654    0.7921565911   -1.6230717347
N        0.7454195500    1.2412070735   -1.4965949289
H        2.4966637516    0.2799772535   -0.9394364348
H        1.0854297171   -2.0098574977   -1.0398491926
H       -1.2322510372   -1.2801760539   -2.4792749706
H       -2.2704832550    0.1737130229   -0.1290856121
H       -1.3162927338    1.4486998363   -2.1317535239
C       -0.2143070128   -0.7429941253    0.3244777339
H        0.0906797537   -0.6892504022    1.3669083520
