13   
From optimize.out: Frame 1 / 2, Energy=    -286.8505605013
C        0.6793813293    0.0144034780    0.2324754230
C        0.9307072938   -1.2724333706   -0.5326549351
C        0.1913295804   -2.3546057565   -0.4683845225
C       -1.2574839109    1.2142972353    0.5400515468
C       -0.3784631796    1.8185081527   -0.4713810820
N        0.7168058109    1.1711325617   -0.6822993779
H        1.5158023204    0.1559282970    0.9392533719
H        1.8170845340   -1.2401261616   -1.1769649158
H        0.1996971139   -3.3452221742   -0.9051795593
H       -2.2184146026    1.6040119797    0.8563572462
H       -0.5982761034    2.7360147588   -1.0162654618
C       -0.6301719416    0.1053028345    0.9710365686
H       -0.9679982446   -0.6072118346    1.7139556980
