13   
Frame   0 IRC: Energy =  -286.8969970000 ; +0.0000 kcal/mol
C        1.6858641679    0.4814235335   -0.3113819283
C        1.1527232392   -0.8125245468   -0.4412693886
C       -0.3355325121   -0.7012813414   -0.4721446490
C       -1.2307385698    0.6018136913    0.9484160797
C       -0.5205371053    0.8655087543   -0.3794389028
N        0.8007712646    1.4737891279   -0.2652936708
H        2.7466490521    0.7061859717   -0.2237539064
H        1.7287599644   -1.7298503689   -0.4908812888
H       -0.8233959338   -1.2458214738   -1.2903701817
H       -1.6636349769    1.2797951207    1.6767668089
H       -1.1132461643    1.3616759339   -1.1569535299
C       -1.0767405604   -0.7273199034    0.8780899213
H       -1.3509418657   -1.5533944985    1.5282146367
13   
Frame   1 IRC: Energy =  -286.8961643250 ; +0.5225 kcal/mol
C        1.6868662034    0.4812713587   -0.2901438382
C        1.1619075897   -0.8131955438   -0.4530786145
C       -0.3298173703   -0.7166219528   -0.4543397098
C       -1.2380966506    0.6111794031    0.9443770685
C       -0.5193701916    0.8552753198   -0.3775596422
N        0.7962765591    1.4675461314   -0.2349247552
H        2.7447848996    0.7131345488   -0.1855220309
H        1.7487695369   -1.7086415541   -0.6263885224
H       -0.8166423420   -1.2866719840   -1.2530002319
H       -1.6637118199    1.3075937915    1.6608909303
H       -1.0971994601    1.3370591210   -1.1729350764
C       -1.0839960275   -0.7171046309    0.8946402418
H       -1.3897709266   -1.5308240088    1.5479841807
13   
Frame   2 IRC: Energy =  -286.8936373670 ; +2.1082 kcal/mol
C        1.6829608012    0.4861078963   -0.2731919080
C        1.1650100369   -0.8097549196   -0.4586143008
C       -0.3274422738   -0.7361184001   -0.4446333320
C       -1.2376537063    0.6230572025    0.9389934756
C       -0.5213843854    0.8542560040   -0.3829150922
N        0.7896886707    1.4641588390   -0.2154126692
H        2.7395870557    0.7181288251   -0.1545473009
H        1.7587369595   -1.6753336434   -0.7329777976
H       -0.7883106657   -1.3860642973   -1.1993515180
H       -1.6336582288    1.3253204048    1.6646838137
H       -1.0883806307    1.3547603452   -1.1772759625
C       -1.0960085960   -0.7076728834    0.8958623532
H       -1.4431450371   -1.5108453731    1.5393802388
13   
Frame   3 IRC: Energy =  -286.8884393669 ; +5.3700 kcal/mol
C        1.6760327482    0.4897044564   -0.2631029854
C        1.1611235081   -0.8050155949   -0.4665283435
C       -0.3290979274   -0.7592508757   -0.4457951378
C       -1.2357636313    0.6349278010    0.9311928626
C       -0.5253111804    0.8703330933   -0.3914514800
N        0.7845203278    1.4650407873   -0.1992792716
H        2.7325757525    0.7106338806   -0.1368557463
H        1.7639476818   -1.6417983238   -0.8014046587
H       -0.7511730381   -1.5084940336   -1.1353715586
H       -1.6096680885    1.3225591019    1.6818827932
H       -1.0799430586    1.4040088629   -1.1753347635
C       -1.1052907470   -0.6946327929    0.8830187312
H       -1.4819523472   -1.4880163625    1.5190295584
13   
Frame   4 IRC: Energy =  -286.8799373531 ; +10.7051 kcal/mol
C        1.6631953039    0.4923213305   -0.2545570420
C        1.1492403915   -0.8048437595   -0.4744373109
C       -0.3273754877   -0.8167213755   -0.4452958342
C       -1.2276457186    0.6488728895    0.9265155044
C       -0.5220217066    0.9300784444   -0.3822515843
N        0.7889785288    1.4780642293   -0.1834843422
H        2.7210815006    0.7001850165   -0.1280586883
H        1.7674792554   -1.6153606110   -0.8461233253
H       -0.7231911352   -1.6305364802   -1.0895294089
H       -1.5986767339    1.3108270489    1.7013393998
H       -1.0770882122    1.4488146554   -1.1774950875
C       -1.1113367729   -0.6796941371    0.8574787624
H       -1.5026392132   -1.4620072512    1.4958989571
13   
Frame   5 IRC: Energy =  -286.8705262349 ; +16.6107 kcal/mol
C        1.6497387025    0.4920059745   -0.2425243664
C        1.1318810526   -0.8081308296   -0.4825680936
C       -0.3106347575   -0.9105163119   -0.4298414828
C       -1.2185152699    0.6603549736    0.9213248760
C       -0.5181399086    1.0330996885   -0.3529440441
N        0.7933297778    1.4895169179   -0.1809766917
H        2.7109443979    0.6937913675   -0.1226785463
H        1.7658615765   -1.5970751368   -0.8768327395
H       -0.7078919806   -1.7196455454   -1.0654727176
H       -1.5951630482    1.3003028575    1.7126661814
H       -1.0785520401    1.4759654779   -1.1832387193
C       -1.1120810543   -0.6672032167    0.8266785778
H       -1.5107774479   -1.4424662170    1.4764077661
13   
Frame   6 IRC: Energy =  -286.8693897733 ; +17.3238 kcal/mol (Transition State)
C        1.6370731090    0.4875947264   -0.2233085312
C        1.1123607938   -0.8128170219   -0.4888966288
C       -0.2862254070   -1.0082979698   -0.4058939434
C       -1.2081265393    0.6687156292    0.9128494167
C       -0.5190860229    1.1472521008   -0.3184764316
N        0.7952184317    1.4968141377   -0.1951141729
H        2.7019805320    0.6887076478   -0.1183935917
H        1.7614156337   -1.5812370634   -0.9037926301
H       -0.6958277898   -1.7899006683   -1.0465519954
H       -1.5948901418    1.2886314126    1.7176990134
H       -1.0800273912    1.5000851100   -1.1852396370
C       -1.1089059618   -0.6585512724    0.7955125031
H       -1.5149592465   -1.4269967687    1.4596066290
13   
Frame   7 IRC: Energy =  -286.8774826580 ; +12.2454 kcal/mol
C        1.6217703176    0.4813563955   -0.1995058986
C        1.0951478085   -0.8213118871   -0.4901843139
C       -0.2640230667   -1.0950009114   -0.3779868775
C       -1.1945929123    0.6734842431    0.8996212435
C       -0.5235982905    1.2580777987   -0.2863326977
N        0.8011681527    1.5071740204   -0.2233011634
H        2.6903698279    0.6810280768   -0.1139426026
H        1.7568332405   -1.5638755712   -0.9336382293
H       -0.6808704688   -1.8624503583   -1.0227635104
H       -1.5971038257    1.2701573720    1.7180828682
H       -1.0810191633    1.5364018424   -1.1806042477
C       -1.1034241746   -0.6547151473    0.7671823267
H       -1.5206574453   -1.4103258737    1.4433731028
13   
Frame   8 IRC: Energy =  -286.8864986482 ; +6.5878 kcal/mol
C        1.6047447426    0.4762640687   -0.1831534079
C        1.0825498125   -0.8327631559   -0.4875951474
C       -0.2483847419   -1.1640684507   -0.3528386590
C       -1.1792493461    0.6765144714    0.8822269307
C       -0.5253142008    1.3506606847   -0.2629592105
N        0.8095545886    1.5196815862   -0.2544587701
H        2.6756502891    0.6683040222   -0.1082298364
H        1.7544264203   -1.5428800222   -0.9677076639
H       -0.6575387976   -1.9479629905   -0.9838488094
H       -1.6030817747    1.2416389117    1.7140962735
H       -1.0826120892    1.5974890084   -1.1667324119
C       -1.0978567372   -0.6537174168    0.7428528165
H       -1.5328881658   -1.3891607173    1.4283478958
13   
Frame   9 IRC: Energy =  -286.8939686757 ; +1.9003 kcal/mol
C        1.5912132515    0.4721882893   -0.1807405150
C        1.0752243390   -0.8416452208   -0.4898606898
C       -0.2363205366   -1.2137829901   -0.3341277923
C       -1.1683660746    0.6767560967    0.8621811951
C       -0.5219972536    1.4094342887   -0.2514770228
N        0.8141282721    1.5285295060   -0.2802609818
H        2.6626883516    0.6529719259   -0.1035893724
H        1.7551243956   -1.5226063531   -0.9995299342
H       -0.6243337247   -2.0394910048   -0.9254448672
H       -1.6137745009    1.2096124893    1.7039655819
H       -1.0864524982    1.6894456006   -1.1410629791
C       -1.0936362454   -0.6556692521    0.7234588311
H       -1.5534977759   -1.3657433758    1.4164885467
13   
Frame  10 IRC: Energy =  -286.9004530180 ; -2.1687 kcal/mol
C        1.5842132159    0.4664805426   -0.1869363535
C        1.0743529680   -0.8481841638   -0.4968937381
C       -0.2241068402   -1.2499169479   -0.3182603183
C       -1.1656051135    0.6731147604    0.8406493101
C       -0.5179405694    1.4405365295   -0.2482078024
N        0.8119447928    1.5298408287   -0.3067607589
H        2.6552469227    0.6416482381   -0.1045315037
H        1.7591897128   -1.5123257513   -1.0211643506
H       -0.5869563395   -2.1201949869   -0.8599381578
H       -1.6301606396    1.1851632867    1.6842617380
H       -1.0937871508    1.8046850732   -1.0990984494
C       -1.0902453392   -0.6626287308    0.7098603216
H       -1.5761456201   -1.3482186786    1.4070200631
13   
Frame  11 IRC: Energy =  -286.9065699822 ; -6.0071 kcal/mol
C        1.5807070696    0.4578586755   -0.1950012349
C        1.0789419957   -0.8568032240   -0.5011937873
C       -0.2107687693   -1.2804277237   -0.3033844900
C       -1.1671061793    0.6671003762    0.8185780499
C       -0.5142426147    1.4631400306   -0.2462069662
N        0.8034012342    1.5239617407   -0.3433773893
H        2.6504894924    0.6358556898   -0.1123027726
H        1.7665704407   -1.5132435023   -1.0310948375
H       -0.5513830064   -2.1848388438   -0.8008720517
H       -1.6538288901    1.1681956816    1.6559793649
H       -1.1022603134    1.9277737398   -1.0380526479
C       -1.0857250482   -0.6706807030    0.6995670774
H       -1.5947954112   -1.3378919372    1.3973616852
13   
Frame  12 IRC: Energy =  -286.9124788856 ; -9.7150 kcal/mol
C        1.5782653688    0.4471373721   -0.2050243880
C        1.0873831573   -0.8676175949   -0.5031101186
C       -0.1970403539   -1.3073290317   -0.2897205480
C       -1.1699720845    0.6617509188    0.7976472529
C       -0.5111216718    1.4849861774   -0.2411560595
N        0.7908039943    1.5140647663   -0.3884187727
H        2.6463969249    0.6339889637   -0.1267097835
H        1.7778629523   -1.5234290691   -1.0299344115
H       -0.5198943216   -2.2365758456   -0.7507630377
H       -1.6854760644    1.1548328907    1.6220416596
H       -1.1078940267    2.0472243033   -0.9604018031
C       -1.0797007689   -0.6778086257    0.6900398866
H       -1.6096131059   -1.3312252253    1.3855101235
13   
Frame  13 IRC: Energy =  -286.9179394457 ; -13.1416 kcal/mol
C        1.5754635415    0.4366844517   -0.2215223797
C        1.0971114219   -0.8794287798   -0.5058362948
C       -0.1832413027   -1.3312133141   -0.2772092252
C       -1.1731148003    0.6580347582    0.7789290402
C       -0.5079182068    1.5077693889   -0.2314264936
N        0.7778996901    1.5051672196   -0.4325379282
H        2.6417727606    0.6341477987   -0.1488330836
H        1.7927718243   -1.5408732504   -1.0194341624
H       -0.4912213527   -2.2812617451   -0.7041407761
H       -1.7249586004    1.1420166880    1.5846787585
H       -1.1073101207    2.1570544931   -0.8714329523
C       -1.0734113652   -0.6824626306    0.6795354026
H       -1.6238434896   -1.3256350782    1.3692300945
13   
Frame  14 IRC: Energy =  -286.9226786371 ; -16.1155 kcal/mol
C        1.5726664911    0.4280912016   -0.2477392175
C        1.1057727525   -0.8904745405   -0.5105468438
C       -0.1696080083   -1.3516672408   -0.2655202039
C       -1.1770442193    0.6558506419    0.7630185600
C       -0.5036688369    1.5313528306   -0.2161580044
N        0.7672025328    1.5012391914   -0.4674542655
H        2.6369929386    0.6351103609   -0.1819204561
H        1.8099750530   -1.5628718042   -1.0008910048
H       -0.4632733448   -2.3229204571   -0.6549353203
H       -1.7706796443    1.1280539890    1.5454908065
H       -1.0981733251    2.2540205428   -0.7769410974
C       -1.0690505730   -0.6852023324    0.6670615892
H       -1.6411118164   -1.3205823833    1.3465354579
13   
Frame  15 IRC: Energy =  -286.9266501356 ; -18.6076 kcal/mol
C        1.5702860114    0.4220932500   -0.2820166462
C        1.1145743907   -0.8987944330   -0.5162597651
C       -0.1587351872   -1.3691567687   -0.2535750208
C       -1.1822707029    0.6555041958    0.7506549311
C       -0.4971924542    1.5541931965   -0.1944044039
N        0.7598705655    1.5026734878   -0.4913459568
H        2.6337475040    0.6361566060   -0.2294439817
H        1.8274694462   -1.5849289844   -0.9746314648
H       -0.4340986143   -2.3616187194   -0.6004385250
H       -1.8189722844    1.1125716514    1.5066191384
H       -1.0812574863    2.3363078946   -0.6826328002
C       -1.0683683611   -0.6881085868    0.6519258083
H       -1.6650528273   -1.3168927898    1.3155486867
13   
Frame  16 IRC: Energy =  -286.9300070818 ; -20.7142 kcal/mol
C        1.5690569498    0.4178982303   -0.3208542301
C        1.1232006254   -0.9030465607   -0.5203112823
C       -0.1505067892   -1.3835855446   -0.2404431393
C       -1.1869865969    0.6558083220    0.7431221197
C       -0.4878062388    1.5745784909   -0.1669486764
N        0.7545339744    1.5079267521   -0.5076461569
H        2.6322717318    0.6370509370   -0.2910585656
H        1.8451613473   -1.6036697092   -0.9411348084
H       -0.4031837484   -2.3958763876   -0.5420502388
H       -1.8653256743    1.0968491663    1.4708891383
H       -1.0600880636    2.4027811567   -0.5922423953
C       -1.0717609415   -0.6914102640    0.6344133018
H       -1.6985665760   -1.3153045893    1.2742649332
13   
Frame  17 IRC: Energy =  -286.9329495130 ; -22.5606 kcal/mol
C        1.5683847281    0.4146223513   -0.3624435025
C        1.1320061314   -0.9036490398   -0.5217519084
C       -0.1444499322   -1.3947601472   -0.2251579632
C       -1.1886900045    0.6569332292    0.7418057880
C       -0.4765958713    1.5917115210   -0.1355054264
N        0.7500030596    1.5147063390   -0.5212165608
H        2.6308607949    0.6380730390   -0.3614237635
H        1.8639999075   -1.6180495553   -0.9008116497
H       -0.3718704399   -2.4247804777   -0.4825608950
H       -1.9063458521    1.0824621336    1.4397071933
H       -1.0381218694    2.4539344670   -0.5068670931
C       -1.0775384450   -0.6959721399    0.6151263180
H       -1.7416422071   -1.3152317203    1.2210994634
13   
Frame  18 IRC: Energy =  -286.9355933822 ; -24.2196 kcal/mol
C        1.5663845855    0.4119284161   -0.4058627040
C        1.1415315167   -0.9023436472   -0.5208844740
C       -0.1400726229   -1.4043641827   -0.2070082630
C       -1.1868157680    0.6592411248    0.7449106259
C       -0.4649653417    1.6045109430   -0.1022575942
N        0.7459330223    1.5214340055   -0.5345129605
H        2.6276174494    0.6393644807   -0.4341194726
H        1.8840970517   -1.6282897939   -0.8557293840
H       -0.3422342578   -2.4480433139   -0.4242014146
H       -1.9412845469    1.0703296968    1.4118048190
H       -1.0166155849    2.4938008789   -0.4252077509
C       -1.0832494167   -0.7020768926    0.5951889017
H       -1.7903260865   -1.3154917156    1.1578796712
13   
Frame  19 IRC: Energy =  -286.9379756778 ; -25.7145 kcal/mol
C        1.5615615154    0.4106410727   -0.4496761185
C        1.1503831367   -0.9025992737   -0.5170053316
C       -0.1336470027   -1.4137933525   -0.1857666126
C       -1.1850327784    0.6608908268    0.7478249483
C       -0.4537921484    1.6141491476   -0.0694302230
N        0.7433269471    1.5281692044   -0.5461680594
H        2.6217336352    0.6403067389   -0.5086744167
H        1.9042999018   -1.6341142037   -0.8095437890
H       -0.3151816524   -2.4678025489   -0.3681678972
H       -1.9716831087    1.0600858955    1.3825614556
H       -0.9931866770    2.5282827584   -0.3423227793
C       -1.0896000487   -0.7089434501    0.5768535498
H       -1.8391817200   -1.3152728153    1.0895152737
13   
Frame  20 IRC: Energy =  -286.9398022663 ; -26.8607 kcal/mol
C        1.5595650105    0.4110952597   -0.4842104196
C        1.1580663426   -0.9067027771   -0.5057799093
C       -0.1200858327   -1.4242145397   -0.1604052608
C       -1.1982711697    0.6569688087    0.7379018950
C       -0.4442560985    1.6244523051   -0.0428247429
N        0.7421337376    1.5321513077   -0.5453185322
H        2.6150462027    0.6413363786   -0.5978988763
H        1.9190095400   -1.6380575432   -0.7783576615
H       -0.2842703281   -2.4868692875   -0.3087791848
H       -2.0050615135    1.0503413656    1.3502077654
H       -0.9586197376    2.5662143902   -0.2559155872
C       -1.1036741744   -0.7117685534    0.5592218445
H       -1.8795819788   -1.3149471148    1.0321586697
13   
Frame  21 IRC: Energy =  -286.9412730001 ; -27.7836 kcal/mol
C        1.5536070973    0.4105379475   -0.5195015873
C        1.1629803910   -0.9080885664   -0.4975819777
C       -0.1086662085   -1.4336842311   -0.1327374915
C       -1.2092795135    0.6543429713    0.7266032311
C       -0.4302363451    1.6337234163   -0.0110777079
N        0.7463764462    1.5407838944   -0.5390958773
H        2.6034764353    0.6366377176   -0.6836963947
H        1.9317778774   -1.6371220915   -0.7519582878
H       -0.2558627553   -2.5033458527   -0.2465637447
H       -2.0415953522    1.0433107608    1.3061090786
H       -0.9237829169    2.5963351594   -0.1691619084
C       -1.1139644052   -0.7165445910    0.5438892823
H       -1.9148307504   -1.3168865345    0.9747733851
13   
Frame  22 IRC: Energy =  -286.9424761248 ; -28.5386 kcal/mol
C        1.5447747255    0.4096134337   -0.5535378681
C        1.1665407136   -0.9074385574   -0.4899986589
C       -0.0990803600   -1.4427555357   -0.1026160535
C       -1.2200836904    0.6527693226    0.7102857027
C       -0.4165072788    1.6402057004    0.0192597406
N        0.7540777975    1.5522632490   -0.5297347191
H        2.5879420673    0.6284611212   -0.7656450254
H        1.9427794226   -1.6326158392   -0.7308005852
H       -0.2293096713   -2.5177145138   -0.1847488925
H       -2.0775361654    1.0390509058    1.2536921134
H       -0.8862826874    2.6219823081   -0.0767751664
C       -1.1223204409   -0.7236299163    0.5291928131
H       -1.9449944322   -1.3201916783    0.9214265992
13   
Frame  23 IRC: Energy =  -286.9434914810 ; -29.1758 kcal/mol
C        1.5340132137    0.4089325277   -0.5853200892
C        1.1695571900   -0.9054902204   -0.4819305723
C       -0.0907105422   -1.4512285915   -0.0700312646
C       -1.2317750702    0.6524151557    0.6875257546
C       -0.4037938728    1.6441059487    0.0492800951
N        0.7651901415    1.5654756004   -0.5160756086
H        2.5687367832    0.6187562981   -0.8452930441
H        1.9514903076   -1.6263477516   -0.7155430333
H       -0.2041472434   -2.5299564542   -0.1255535610
H       -2.1118902747    1.0370746046    1.1945175931
H       -0.8464876998    2.6429472584    0.0198624044
C       -1.1296876996   -0.7325840308    0.5145899955
H       -1.9704952334   -1.3241003450    0.8739713304
13   
Frame  24 IRC: Energy =  -286.9443649381 ; -29.7239 kcal/mol
C        1.5221502375    0.4090886399   -0.6140469662
C        1.1721727656   -0.9028291099   -0.4736049857
C       -0.0829177604   -1.4582430425   -0.0354207958
C       -1.2447567759    0.6537770986    0.6576864855
C       -0.3912772875    1.6463306464    0.0821950444
N        0.7809725519    1.5795107759   -0.4952434937
H        2.5457115982    0.6090549939   -0.9240546024
H        1.9567497229   -1.6201012442   -0.7075825323
H       -0.1800511224   -2.5395780440   -0.0697621904
H       -2.1453479565    1.0368181620    1.1287660118
H       -0.8058437088    2.6570264716    0.1169314578
C       -1.1361276595   -0.7425161762    0.5005162424
H       -1.9914346051   -1.3283391714    0.8336203247
13   
Frame  25 IRC: Energy =  -286.9450909047 ; -30.1794 kcal/mol
C        1.5106598825    0.4109822036   -0.6370293891
C        1.1744525044   -0.9000574414   -0.4654756039
C       -0.0751513709   -1.4628947353   -0.0002849875
C       -1.2602109139    0.6570557192    0.6174234050
C       -0.3826480728    1.6456987364    0.1115998396
N        0.8018207535    1.5917702163   -0.4663389433
H        2.5194610576    0.6011937962   -0.9997557734
H        1.9570362177   -1.6152003133   -0.7102557800
H       -0.1561373822   -2.5461272180   -0.0167165214
H       -2.1770077245    1.0383491023    1.0577774484
H       -0.7635308712    2.6650104790    0.2166816109
C       -1.1421406032   -0.7526808416    0.4871713252
H       -2.0066034770   -1.3330997035    0.8052033696
13   
Frame  26 IRC: Energy =  -286.9457080933 ; -30.5667 kcal/mol
C        1.5035052740    0.4161908293   -0.6518869507
C        1.1763400197   -0.8990133944   -0.4605241680
C       -0.0662019574   -1.4636808490    0.0320784908
C       -1.2796701227    0.6630492204    0.5663801377
C       -0.3769422603    1.6432499145    0.1448420974
N        0.8312843964    1.5977023370   -0.4203202273
H        2.4933495626    0.5981090314   -1.0699658813
H        1.9480143734   -1.6154025005   -0.7325237389
H       -0.1302583423   -2.5484657584    0.0351624708
H       -2.2101522742    1.0400692562    0.9816564300
H       -0.7275628017    2.6665081681    0.3018226934
C       -1.1481372050   -0.7612272548    0.4753045046
H       -2.0135686625   -1.3370889999    0.7979741415
13   
Frame  27 IRC: Energy =  -286.9461989927 ; -30.8747 kcal/mol
C        1.5089999017    0.4265388136   -0.6385465306
C        1.1661481694   -0.9054052979   -0.4841878083
C       -0.0591463483   -1.4574693570    0.0364358326
C       -1.2942509345    0.6694885230    0.5388933894
C       -0.3879202862    1.6412321155    0.1510362800
N        0.8598316575    1.5860838881   -0.3734139938
H        2.5010633841    0.6002712956   -1.0583315946
H        1.9214356958   -1.6216910074   -0.7975018917
H       -0.1149451273   -2.5431668914    0.0689744672
H       -2.2367519198    1.0406280446    0.9332835615
H       -0.7291471445    2.6686044622    0.2879802403
C       -1.1444055750   -0.7627865845    0.4870537577
H       -1.9909114729   -1.3423280045    0.8483242903
