13   
From qcopt_rct.out: Frame 2 / 2, Energy=    -286.8754845636
C        1.6785864182    0.4827726302   -0.3246534839
C        1.1470526304   -0.8117478288   -0.4362582285
C       -0.3417421016   -0.7024097273   -0.4751423931
C       -1.2151257383    0.6015569718    0.9530051010
C       -0.5222166042    0.8645629765   -0.3843347831
N        0.7982617362    1.4778695758   -0.2908445024
H        2.7411767710    0.7071933806   -0.2421505935
H        1.7212204975   -1.7317821702   -0.4461674774
H       -0.8256238594   -1.2467755293   -1.2966771244
H       -1.6246018247    1.2817247554    1.6937878483
H       -1.1307315785    1.3567924101   -1.1528759836
C       -1.0761477772   -0.7264332602    0.8761026354
H       -1.3501085697   -1.5533241849    1.5262089856
13   
From qcopt_prd.out: Frame 2 / 2, Energy=    -286.9243420069
C        1.5039242055    0.4253792097   -0.6441996928
C        1.1647526050   -0.9057043706   -0.4841773303
C       -0.0582998158   -1.4554082750    0.0419821970
C       -1.2913909421    0.6712706847    0.5410666636
C       -0.3880609985    1.6389254324    0.1454118276
N        0.8577840515    1.5848353231   -0.3834974780
H        2.4959217614    0.5968924178   -1.0682287450
H        1.9190059538   -1.6238893019   -0.7967854381
H       -0.1127561260   -2.5416599404    0.0776065574
H       -2.2332918587    1.0421679065    0.9381933643
H       -0.7300364949    2.6675445331    0.2793289133
C       -1.1407549952   -0.7611445694    0.4935864038
H       -1.9867973460   -1.3392090501    0.8597127571
