13   
From optimize.out: Frame 1 / 2, Energy=    -286.8549095738
C        1.6801790246    0.3941026087   -0.1783820193
C        1.1262118113   -0.8348490310   -0.2685289378
C       -0.3162841307   -1.0621848678   -0.0823204238
C       -1.1557279371    0.3278757744    0.0469936080
C       -0.3269541053    1.5324844040   -0.1484785026
N        0.9598677316    1.5898455975   -0.1662576803
H        2.7570140642    0.5227856985   -0.2501939659
H        1.7478113132   -1.6980287218   -0.4937562742
H       -0.7575702086   -1.9017382680   -0.6224630194
H       -2.1622104709    0.3916870516   -0.3711500977
H       -0.8676481845    2.4600622154   -0.3521833492
C       -0.9589916683   -0.6131773555    1.1517287765
H       -1.7256972399   -1.1088651055    1.7349918851
13   
From optimize.out: Frame 1 / 2, Energy=    -286.8505297448
C        0.6574972011    0.0208007156    0.2806613023
C        1.0071821366   -1.2174319305   -0.5244428927
C        0.3032007222   -2.3236513888   -0.5672611172
C       -1.3309762843    1.1511831546    0.5068860752
C       -0.4003905167    1.8307396575   -0.4063839677
N        0.7265163540    1.2237956417   -0.5684761525
H        1.4340666131    0.1490763331    1.0553231697
H        1.9346521411   -1.1231490394   -1.1013215857
H        0.3765221234   -3.2886226148   -1.0528583827
H       -2.3239256500    1.4962469481    0.7724061532
H       -0.6090046255    2.7687817943   -0.9196545436
C       -0.7038731787    0.0365166868    0.9236013208
H       -1.0714670365   -0.7242859583    1.6015206208
