13   
From optimize.out: Frame 1 / 2, Energy=    -286.7239556821
C        1.5336459567    0.3216897092   -0.9094403748
C       -0.0491294848   -2.0293657852    0.2818656740
C       -1.1767736480   -1.3349723737    0.3493905167
C       -1.3609226921    0.1072737658    0.4979806226
C       -0.4070581013    1.0618019368    0.4871228615
N        0.9845908033    0.8367175807    0.4055343678
H        1.6026508419   -0.6265047528   -1.4128822237
H        0.1965296989   -3.0826993469    0.2159390351
H       -2.1133099855   -1.9084212119    0.3079462464
H       -2.3843576097    0.4380348107    0.6558489079
H       -0.6874459602    2.1011609889    0.6609662928
C        1.7300491455    1.5653256729   -0.6826268898
H        2.1315310352    2.5499590055   -0.8576450367
