13   
From qcts2.out: Frame 500 / 500, Energy=    -286.8350436173
C        1.0933731942    0.3235368806    0.4647147957
C        0.8722498066   -0.8212710901   -0.5451106502
C       -0.4687095382   -0.9453167881   -0.8090942716
C       -1.1008423638    0.1950999148    0.0272821824
C       -0.4642906608    1.4884544427   -0.4919361832
N        0.7719754395    1.6061367071   -0.2066190403
H        2.0662805912    0.3458863208    0.9516967597
H        1.5228529776   -1.6915854482   -0.5646263472
H       -0.7686437910   -1.9887728100   -0.7226559391
H       -2.1789265848    0.3545577145    0.0592598628
H       -0.9668500500    2.1725102270   -1.1740177949
C       -0.1994270579   -0.0293485289    1.2651192317
H       -0.1939607214   -1.0205628871    1.7223865826
