13   
From optimize.out: Frame 1 / 2, Energy=    -286.9243082816
C        1.3917926526    0.8452961317   -0.4535025930
C        0.3320571785   -1.4191549484   -0.0108989053
C       -0.9372591919   -1.0635990874    0.3355769777
C       -1.4735453263    0.2709161228    0.4088277573
C       -0.8285738633    1.4661756562    0.1474827301
N        0.4314529297    1.7764552369   -0.2354434273
H        2.3396145720    1.2992120474   -0.7509214815
H        0.5705480365   -2.4807056323   -0.0106180559
H       -1.6290252401   -1.8659895641    0.5846124860
H       -2.5160373095    0.3540411315    0.7062609095
H       -1.4481548325    2.3572705780    0.2719537962
C        1.4089889628   -0.5338951732   -0.3753636075
H        2.3581414318   -1.0060224992   -0.6179665861
13   
From optimize.out: Frame 1 / 2, Energy=    -286.8707854440
C        1.7130215860    0.1670611838   -0.5032386452
C       -0.1457353605   -1.3324510280    0.1271661948
C       -1.4595308609   -1.1904498549    0.4959694350
C       -1.7522403587    0.2082901400    0.4923175028
C       -0.6074129166    0.8703438361    0.1221443696
N        0.3817456371   -0.0708565300   -0.1040121945
H        2.2842050677   -0.7551109763   -0.6090495923
H        0.4712364460   -2.2113997254    0.0046424563
H       -2.1402562938   -1.9955745949    0.7389927412
H       -2.6992450123    0.6710115068    0.7357928020
H       -0.4039078567    1.9228802981   -0.0047322992
C        2.2844853671    1.3288984671   -0.7431412085
H        2.0736345555    2.3873572776   -0.7528515620
