13   
From optimize.out: Frame 1 / 2, Energy=    -286.9243440152
C        1.3374088556    0.8630327542   -0.5692167788
C        0.2717232502   -1.4149392997   -0.2190670591
C       -0.9148941645   -1.0760410417    0.3592297020
C       -1.3808469394    0.2523161617    0.6636972589
C       -0.7390608738    1.4560185790    0.4365928386
N        0.4570638263    1.7816787336   -0.1031862444
H        2.2450018753    1.3291826855   -0.9589944881
H        0.4654123397   -2.4734959299   -0.3795090058
H       -1.5903632012   -1.8875257230    0.6227485735
H       -2.3618319473    0.3238665003    1.1270289569
H       -1.2999171019    2.3394086893    0.7502820903
C        1.3143766211   -0.5156861831   -0.6458662843
H        2.1959274605   -0.9778159267   -1.0837395593
