13   
From optimize.out: Frame 1 / 2, Energy=    -286.8516345402
C        1.5189874062    0.3441588063   -0.2644252994
C        0.6216192586   -0.8944701024   -0.0647318007
C       -0.3948716278   -0.5208172525   -1.1474916430
C       -1.0026577606    0.5083552418    0.8086557238
C       -0.5872412418    0.8947648274   -0.6197781154
N        0.8524697132    1.3865955360   -0.5761305058
H        2.5997530457    0.3578848315   -0.1336547130
H        1.1020933072   -1.8728860788   -0.0775504506
H       -1.2194040131   -1.1747379185   -1.4269638383
H       -1.7237658678    1.0470917705    1.4134949852
H       -1.2335871503    1.5920977564   -1.1505755036
C       -0.2723898965   -0.5664110507    1.1480186723
H       -0.2610051735   -1.1016263668    2.0911324881
13   
From optimize.out: Frame 25 / 26, Energy=    -286.8516345401
C        1.5140415843    0.3299605841   -0.2735479016
C        0.6106127759   -0.8986839187   -0.0594199330
C       -0.4072184120   -0.5179639816   -1.1397981083
C       -0.9934000478    0.5227437679    0.8288123054
C       -0.5878774099    0.8915165264   -0.6133009434
N        0.8512696040    1.3754192711   -0.5850166696
H        2.5931599795    0.3476464890   -0.1324471397
H        1.0696523910   -1.8865392704   -0.0628373748
H       -1.1819089172   -1.1647762952   -1.5327170535
H       -1.7493032020    1.0194768536    1.4243973641
H       -1.2415508693    1.5872170915   -1.1356608543
C       -0.2618158864   -0.5465896416    1.1652707416
H       -0.2156615901   -1.0594274761    2.1162655671
13   
From optimize.out: Frame 23 / 26, Energy=    -286.8516095087
C        1.5193098917    0.3121170777   -0.2815444668
C        0.6064454200   -0.9000439237   -0.0703122909
C       -0.4391927438   -0.5104434951   -1.1216069421
C       -0.9932922592    0.5063531572    0.8205332008
C       -0.5676700762    0.9014819866   -0.6086317092
N        0.8656894950    1.3630367298   -0.5928161542
H        2.5922901317    0.3335692673   -0.1005114804
H        1.0403351690   -1.8983326202   -0.0840383813
H       -1.1885915889   -1.1426305056   -1.5661033023
H       -1.8097302017    0.9449540235    1.3832138895
H       -1.2363860761    1.5969185260   -1.1087068088
C       -0.2385133029   -0.5290849927    1.1770675163
H       -0.1506938587   -0.9778952307    2.1534569294
13   
From optimize.out: Frame 20 / 26, Energy=    -286.8512761882
C        1.5291941695    0.3031004641   -0.2875649961
C        0.6096840223   -0.8994858781   -0.0718695296
C       -0.4763801163   -0.4998846903   -1.0790391226
C       -1.0048981474    0.4725805963    0.7845160123
C       -0.5461073521    0.9280012194   -0.6052023954
N        0.8835522282    1.3614884686   -0.5890779573
H        2.5997494705    0.3179355041   -0.0905946643
H        1.0364323465   -1.9006695132   -0.1081885496
H       -1.2230872350   -1.1253206465   -1.5377533403
H       -1.8687276035    0.8711917384    1.3092137271
H       -1.2183358064    1.6276926616   -1.0947344305
C       -0.2185125722   -0.5273925207    1.1872565627
H       -0.1025634041   -0.9292374036    2.1830386837
13   
From optimize.out: Frame 16 / 26, Energy=    -286.8462081473
C        1.5398342121    0.3003548855   -0.2892001553
C        0.6177374028   -0.8993301509   -0.0673400387
C       -0.5143577356   -0.4841945366   -1.0221043056
C       -1.0217820200    0.4396614272    0.7406139413
C       -0.5280564858    0.9600889764   -0.6082856950
N        0.8982988034    1.3659661389   -0.5818018628
H        2.6108004947    0.3061487772   -0.0927919527
H        1.0477487011   -1.8989434335   -0.1292769611
H       -1.2705507120   -1.1059031575   -1.4792328661
H       -1.9214705025    0.8135982767    1.2247998102
H       -1.1951349604    1.6638713515   -1.1009003250
C       -0.1983979913   -0.5431568257    1.1978842703
H       -0.0646692066   -0.9181617292    2.2076361404
13   
From optimize.out: Frame 14 / 26, Energy=    -286.8369988490
C        1.5430428936    0.3001702255   -0.2842656320
C        0.6219415639   -0.9024603559   -0.0635900955
C       -0.5463858955   -0.4647253580   -0.9705209328
C       -1.0317153699    0.4035147177    0.6920510643
C       -0.5104096503    0.9861365962   -0.6112560610
N        0.9096365715    1.3752543144   -0.5709060384
H        2.6147456567    0.2978929685   -0.0909659623
H        1.0541946839   -1.8997175814   -0.1487643143
H       -1.3179152539   -1.0793711769   -1.4099248296
H       -1.9592859770    0.7536967128    1.1409740952
H       -1.1704298314    1.6928802358   -1.1078140076
C       -0.1821525233   -0.5723606746    1.2000276160
H       -0.0252668682   -0.8909106241    2.2249550979
13   
From optimize.out: Frame 11 / 26, Energy=    -286.8240569261
C        1.5432650289    0.3039840053   -0.2574554931
C        0.6308915942   -0.9032489433   -0.0563684340
C       -0.5540613929   -0.4562902200   -0.9394310247
C       -1.0349932873    0.3789637784    0.6704703362
C       -0.4989809798    0.9958496271   -0.6166462362
N        0.9126067393    1.3841431699   -0.5349074377
H        2.6221562573    0.2868664872   -0.1151111198
H        1.0765326579   -1.8888792191   -0.1953622199
H       -1.3626500473   -1.0550475911   -1.3327665021
H       -1.9867406630    0.7305103224    1.0641683217
H       -1.1467629259    1.7065950879   -1.1224735751
C       -0.2067751117   -0.6329852815    1.1959346097
H        0.0055121304   -0.8504612232    2.2399487750
13   
From optimize.out: Frame 9 / 26, Energy=    -286.8212493953
C        1.5437684505    0.3169160200   -0.2273012372
C        0.6489916871   -0.8984011226   -0.0411007072
C       -0.5471698126   -0.4572800086   -0.9035281448
C       -1.0231823654    0.3686687002    0.6819779892
C       -0.4918171562    0.9945514195   -0.6390422971
N        0.9029133459    1.3942562641   -0.4980899080
H        2.6295220590    0.2942303163   -0.1678978388
H        1.1074773825   -1.8673429589   -0.2455781274
H       -1.3911636178   -1.0334363010   -1.2585715881
H       -1.9829533954    0.7570033892    1.0166522625
H       -1.1278230937    1.7013670577   -1.1633206652
C       -0.2483147600   -0.7014163338    1.1945968555
H       -0.0202487239   -0.8691164422    2.2512034067
13   
From optimize.out: Frame 7 / 26, Energy=    -286.8110639237
C        1.5428523640    0.3317033530   -0.2067252804
C        0.6677704912   -0.8892208278   -0.0217355093
C       -0.5348779875   -0.4601498102   -0.8621001794
C       -1.0064583011    0.3615452856    0.7103493974
C       -0.4853777355    0.9944732338   -0.6741992164
N        0.8847231934    1.4067246411   -0.4738467078
H        2.6294180442    0.3125122142   -0.2259410402
H        1.1303702345   -1.8439508500   -0.2835788635
H       -1.4074605230   -1.0122687928   -1.1980693577
H       -1.9633452744    0.7909869724    0.9960539325
H       -1.1037394351    1.6951616555   -1.2280379239
C       -0.2851272363   -0.7618623670    1.2016391841
H       -0.0687478342   -0.9256547079    2.2661915645
13   
From optimize.out: Frame 4 / 26, Energy=    -286.7730641996
C        1.5404067847    0.3447331574   -0.1924081335
C        0.6848362277   -0.8770734378    0.0008948514
C       -0.5175594971   -0.4649382273   -0.8215658905
C       -0.9883793125    0.3562931537    0.7428923579
C       -0.4801076349    0.9982699983   -0.7114397654
N        0.8601164057    1.4231956696   -0.4577934997
H        2.6223270537    0.3314721954   -0.2849958542
H        1.1462187633   -1.8203031614   -0.3120038922
H       -1.4179944864   -0.9945010300   -1.1521226737
H       -1.9379615010    0.8212390806    0.9871777688
H       -1.0749692669    1.6947631069   -1.3019099251
C       -0.3167498509   -0.8180249062    1.2160108817
H       -0.1201836854   -0.9951255994    2.2872637743
13   
C6H6N->C6H6N atoms 1-13 frame 233 charge -0.000 sz -1.000 sz^2 0.704
C        1.5371324902    0.3544571739   -0.1794419395
C        0.7008969797   -0.8641213052    0.0276979809
C       -0.4938792196   -0.4753021952   -0.7837765518
C       -0.9677103957    0.3576769638    0.7702392983
C       -0.4784894201    1.0094520568   -0.7451269241
N        0.8259257680    1.4499988338   -0.4447769576
H        2.6096831738    0.3445467061   -0.3425003669
H        1.1584174127   -1.7978868286   -0.3331997320
H       -1.4281776172   -0.9884260911   -1.1218782136
H       -1.9073040144    0.8532740583    0.9767255676
H       -1.0485676111    1.7052991204   -1.3745154860
C       -0.3404267975   -0.8755707586    1.2363995816
H       -0.1675007487   -1.0733977343    2.3141537433
13   
C6H6N->C6H6N atoms 1-13 frame 236 charge -0.000 sz -1.000 sz^2 0.679
C        1.5235480735    0.3624690782   -0.1688156438
C        0.7156342284   -0.8543712119    0.0580925036
C       -0.4599689211   -0.4907748218   -0.7494176978
C       -0.9409789604    0.3688720927    0.7877633784
C       -0.4802866641    1.0270172788   -0.7707565278
N        0.7825783564    1.4853622299   -0.4325926324
H        2.5848579639    0.3501003503   -0.3943536745
H        1.1666148208   -1.7809467420   -0.3465968124
H       -1.4331800582   -0.9955785035   -1.1095391767
H       -1.8674931070    0.8911309589    0.9588634548
H       -1.0299228223    1.7268273777   -1.4367308837
C       -0.3550360038   -0.9332248573    1.2591254981
H       -0.2063669061   -1.1568832302    2.3449582143
13   
C6H6N->C6H6N atoms 1-13 frame 238 charge -0.000 sz -1.000 sz^2 0.632
C        1.5433223134    0.3837102626   -0.1739136823
C        0.7384041459   -0.8384993908    0.0712380891
C       -0.4356107006   -0.5064786305   -0.7054152221
C       -0.9344699761    0.3905005040    0.7949539064
C       -0.4749609107    1.0176394403   -0.7794404643
N        0.7490464643    1.4915631000   -0.4460335833
H        2.5882596649    0.3465905276   -0.4501437927
H        1.1551425301   -1.7752132391   -0.3219876055
H       -1.4199307303   -0.9399099552   -1.1287683856
H       -1.8626220072    0.9190131262    0.9428805574
H       -1.0367877114    1.6993111078   -1.4441626119
C       -0.3765872540   -0.9483861269    1.2657395879
H       -0.2332058283   -1.2398407260    2.3750532070
13   
C6H6N->C6H6N atoms 1-13 frame 240 charge -0.000 sz -1.000 sz^2 0.577
C        1.5793282609    0.4102827394   -0.1891830030
C        0.7631573135   -0.8215082208    0.0736899541
C       -0.4232922934   -0.5175373042   -0.6589316430
C       -0.9387325176    0.4167536000    0.7981275193
C       -0.4657230756    0.9956713273   -0.7816665340
N        0.7251135269    1.4821464941   -0.4732310097
H        2.6079983338    0.3385981000   -0.5063822150
H        1.1352325333   -1.7752168064   -0.2775788145
H       -1.3871466737   -0.8566330659   -1.1563840343
H       -1.8765944854    0.9420967879    0.9350775396
H       -1.0578273571    1.6452772344   -1.4223753383
C       -0.4035299070   -0.9419265269    1.2653676239
H       -0.2579836587   -1.3180043588    2.3934699550
13   
C6H6N->C6H6N atoms 1-13 frame 242 charge +0.000 sz -1.000 sz^2 0.527
C        1.6150098340    0.4354145565   -0.2095868035
C        0.7857151985   -0.8077340052    0.0724567772
C       -0.4205691152   -0.5215156232   -0.6154330539
C       -0.9443240844    0.4455107133    0.8007533098
C       -0.4558352509    0.9734642769   -0.7819656925
N        0.7090407918    1.4702462846   -0.5033123750
H        2.6318858721    0.3297093706   -0.5589574680
H        1.1170888148   -1.7805649522   -0.2273308385
H       -1.3378237415   -0.7806221829   -1.1799268128
H       -1.8923227434    0.9658166018    0.9371715563
H       -1.0873431719    1.5884984417   -1.3907713221
C       -0.4327066438   -0.9306111261    1.2656883061
H       -0.2878157601   -1.3876123559    2.3912144168
13   
C6H6N->C6H6N atoms 1-13 frame 245 charge +0.000 sz -1.000 sz^2 0.623
C        1.6500864578    0.4578227250   -0.2342170889
C        0.8064943244   -0.7973927302    0.0679438657
C       -0.4273811632   -0.5169891135   -0.5748735399
C       -0.9507928703    0.4768851445    0.8042431965
C       -0.4453540395    0.9514707973   -0.7781923406
N        0.7040030836    1.4568810551   -0.5344219868
H        2.6608061203    0.3225353553   -0.6059354102
H        1.1044840060   -1.7945694667   -0.1725036478
H       -1.2779442755   -0.7217287147   -1.2011457947
H       -1.9069436240    0.9896683570    0.9501004524
H       -1.1277978091    1.5340394665   -1.3508137064
C       -0.4643386256   -0.9145587815    1.2671849217
H       -0.3253215850   -1.4440640941    2.3626310789
13   
C6H6N->C6H6N atoms 1-13 frame 247 charge -0.000 sz -1.000 sz^2 0.643
C        1.6834287077    0.4756010683   -0.2614663746
C        0.8256879845   -0.7910339700    0.0605080395
C       -0.4422303777   -0.5035020261   -0.5376637542
C       -0.9571716641    0.5101505439    0.8102757400
C       -0.4348901519    0.9310754885   -0.7681653946
N        0.7135373035    1.4433630481   -0.5642013135
H        2.6939506485    0.3207601533   -0.6433870962
H        1.1004807053   -1.8173599116   -0.1155706047
H       -1.2194194772   -0.6926926620   -1.2243228141
H       -1.9171663763    1.0120685109    0.9735842275
H       -1.1777977650    1.4874058037   -1.3039215532
C       -0.4973398693   -0.8943769270    1.2697924078
H       -0.3710696679   -1.4814591200    2.3045384903
13   
From optimize.out: Frame 5 / 24, Energy=    -286.7529313460
C        1.7131537496    0.4873552397   -0.2892328465
C        0.8430697055   -0.7888888716    0.0508592243
C       -0.4617715802   -0.4836882016   -0.5043596736
C       -0.9623934008    0.5436015482    0.8199134078
C       -0.4257170793    0.9143390111   -0.7516220333
N        0.7374093956    1.4307446442   -0.5909773004
H        2.7283053334    0.3269685532   -0.6688510614
H        1.1046906865   -1.8433102948   -0.0607086306
H       -1.1740187371   -0.6995095355   -1.2520138605
H       -1.9219225938    1.0312264964    1.0041842896
H       -1.2291036498    1.4513124288   -1.2520496313
C       -0.5294356094   -0.8715301292    1.2724522442
H       -0.4222662202   -1.4986208889    2.2224058717
13   
From optimize.out: Frame 7 / 24, Energy=    -286.7900846911
C        1.7182386954    0.4814049160   -0.3145875736
C        0.8526519962   -0.7926464400    0.0346368037
C       -0.4848301608   -0.4721064950   -0.4825509923
C       -0.9683967800    0.5681680767    0.8323145927
C       -0.4172245998    0.9128705525   -0.7275050028
N        0.7874435204    1.4258311422   -0.6151822215
H        2.7443671433    0.3391600384   -0.6662126128
H        1.1182426233   -1.8606039154   -0.0158886011
H       -1.1542072163   -0.7558961437   -1.2780466507
H       -1.9290164660    1.0334829734    1.0386793597
H       -1.2597735937    1.4435616772   -1.1954381288
C       -0.5497514671   -0.8387165287    1.2598527580
H       -0.4577436949   -1.4845098536    2.1299282692
13   
From optimize.out: Frame 9 / 24, Energy=    -286.8138878907
C        1.6780044609    0.4441544140   -0.3126316616
C        0.8444017382   -0.8000033595    0.0160165906
C       -0.5010305959   -0.4916252716   -0.4927899729
C       -0.9743273893    0.5722251641    0.8365842795
C       -0.4210950479    0.9305786060   -0.7023562223
N        0.8396853581    1.4211736527   -0.6211226437
H        2.7209270077    0.3466473303   -0.6111122873
H        1.1386856439   -1.8534010430   -0.0109057792
H       -1.1722933640   -0.8309121656   -1.2782450916
H       -1.9406094524    1.0174761482    1.0588707383
H       -1.2484335582    1.4780437612   -1.1605742646
C       -0.5347942604   -0.8000580587    1.2057867721
H       -0.4291205407   -1.4342991781    2.0724795428
13   
From optimize.out: Frame 12 / 24, Energy=    -286.8306032373
C        1.6456563542    0.4103349419   -0.3054456051
C        0.8354110135   -0.8097470687    0.0010114166
C       -0.5134013453   -0.5204201885   -0.5052183651
C       -0.9777047386    0.5945290083    0.8430314892
C       -0.4350120114    0.9427002827   -0.6694829090
N        0.8733381260    1.4121540878   -0.6187677115
H        2.7042914113    0.3565379595   -0.5479949158
H        1.1564759089   -1.8494146176   -0.0094481457
H       -1.1852368176   -0.9092338318   -1.2730804911
H       -1.9450683867    1.0265341633    1.0829212059
H       -1.2426232322    1.5059362372   -1.1286940358
C       -0.5183346095   -0.7642545799    1.1328902470
H       -0.3977916725   -1.3956563940    1.9982778204
13   
From optimize.out: Frame 14 / 24, Energy=    -286.8350894723
C        1.6240234055    0.3860252867   -0.3014189642
C        0.8277586817   -0.8214849213   -0.0146514211
C       -0.5219725454   -0.5546471635   -0.5205913527
C       -0.9776577460    0.6298564190    0.8565364851
C       -0.4543434101    0.9481716387   -0.6328785109
N        0.8948748982    1.4032055666   -0.6129720220
H        2.6946790547    0.3682864646   -0.4871439000
H        1.1712522585   -1.8503872112   -0.0093621791
H       -1.1855026467   -0.9918503637   -1.2745290789
H       -1.9400026157    1.0554369256    1.1205822269
H       -1.2440184763    1.5241891582   -1.0991561219
C       -0.5088259446   -0.7296359572    1.0584028478
H       -0.3802649138   -1.3671658427    1.9171819911
13   
From optimize.out: Frame 16 / 24, Energy=    -286.8363058163
C        1.6082367480    0.3691879089   -0.3048473054
C        0.8202756671   -0.8346576094   -0.0341937169
C       -0.5300383404   -0.5893484385   -0.5453707535
C       -0.9687374541    0.6706324687    0.8772576138
C       -0.4771633551    0.9505574274   -0.5957245741
N        0.9056415820    1.3965168756   -0.6147900317
H        2.6886872067    0.3822344114   -0.4208542477
H        1.1861996029   -1.8538322605   -0.0094446951
H       -1.1776001639   -1.0755715605   -1.2842674553
H       -1.9222231663    1.0908558270    1.1752544293
H       -1.2479420423    1.5368595711   -1.0796361600
C       -0.5047524940   -0.6949852577    0.9940383607
H       -0.3805837908   -1.3484493635    1.8425785358
13   
From optimize.out: Frame 21 / 24, Energy=    -286.8364809610
C        1.5943480125    0.3623197969   -0.3182224715
C        0.8112258264   -0.8442089181   -0.0521111298
C       -0.5415875754   -0.6160483460   -0.5752530907
C       -0.9418930086    0.7118188513    0.9042650143
C       -0.4991535609    0.9549117910   -0.5642348624
N        0.9052567487    1.3940578136   -0.6336640125
H        2.6803932137    0.3998566130   -0.3492802738
H        1.2027102815   -1.8525366452   -0.0029342679
H       -1.1704251658   -1.1540682673   -1.2905953640
H       -1.8871113792    1.1176361683    1.2447226903
H       -1.2457146229    1.5443704575   -1.0850112712
C       -0.4990989016   -0.6650461139    0.9471680941
H       -0.4089498682   -1.3530632012    1.7751509450
13   
From optimize.out: Frame 23 / 24, Energy=    -286.8364925738
C        1.5842498870    0.3656849255   -0.3378020929
C        0.8027391297   -0.8463176751   -0.0582847268
C       -0.5537335377   -0.6295135816   -0.5985789684
C       -0.8991023465    0.7481358871    0.9315409991
C       -0.5172745413    0.9615564700   -0.5459561080
N        0.8953447427    1.3945866670   -0.6611009978
H        2.6702847941    0.4195021832   -0.2953715720
H        1.2190709823   -1.8441652548    0.0084630435
H       -1.1633089259   -1.2218848738   -1.2819390596
H       -1.8393751459    1.1268664960    1.3162151663
H       -1.2369575765    1.5488412068   -1.1098532602
C       -0.4822361211   -0.6438496448    0.9196192166
H       -0.4797013410   -1.3794428054    1.7130483603
13   
From optimize.out: Frame 1 / 3, Energy=    -286.8364768384
C        1.5803212458    0.3744304565   -0.3538975243
C        0.7985878174   -0.8448314302   -0.0466541017
C       -0.5614159039   -0.6293032314   -0.6093889768
C       -0.8540996076    0.7745921646    0.9504656575
C       -0.5320327834    0.9649097210   -0.5417587733
N        0.8799373338    1.3932542104   -0.6849217529
H        2.6647658989    0.4394363307   -0.2772664298
H        1.2339369968   -1.8364856157    0.0085221023
H       -1.1486277103   -1.2742494801   -1.2592408042
H       -1.7895197393    1.1198244269    1.3783484242
H       -1.2297120166    1.5531297537   -1.1348422666
C       -0.4474205611   -0.6325659725    0.9124184918
H       -0.5947209705   -1.4021413339    1.6582159539
13   
From optimize.out: Frame 2 / 3, Energy=    -286.8364791119
C        1.5753679093    0.3864788725   -0.3512475155
C        0.7977648760   -0.8454212369   -0.0274360727
C       -0.5587405822   -0.6278946233   -0.6144534106
C       -0.8372152388    0.7822875094    0.9479234555
C       -0.5511250432    0.9466463528   -0.5501673317
N        0.8577007544    1.3905671501   -0.6919022744
H        2.6599291271    0.4589366719   -0.2781146930
H        1.2472111904   -1.8334598149   -0.0014193331
H       -1.1149677950   -1.2923680864   -1.2694450129
H       -1.7144147633    1.1623257940    1.4592341836
H       -1.2376485792    1.5311299547   -1.1623405678
C       -0.4355570371   -0.6373090374    0.9168993255
H       -0.6883048184   -1.4219195066    1.6224692471
