13   
From optimize.out: Frame 25 / 26, Energy=    -286.8516345401
C        1.5189874062    0.3441588063   -0.2644252994
C        0.6216192586   -0.8944701024   -0.0647318007
C       -0.3948716278   -0.5208172525   -1.1474916430
C       -1.0026577606    0.5083552418    0.8086557238
C       -0.5872412418    0.8947648274   -0.6197781154
N        0.8524697132    1.3865955360   -0.5761305058
H        2.5997530457    0.3578848315   -0.1336547130
H        1.1020933072   -1.8728860788   -0.0775504506
H       -1.2194040131   -1.1747379185   -1.4269638383
H       -1.7237658678    1.0470917705    1.4134949852
H       -1.2335871503    1.5920977564   -1.1505755036
C       -0.2723898965   -0.5664110507    1.1480186723
H       -0.2610051735   -1.1016263668    2.0911324881
13   
From optimize.out: Frame 23 / 26, Energy=    -286.8516095087
C        1.5130851379    0.3415753244   -0.2685237369
C        0.6143362651   -0.8964411226   -0.0525907518
C       -0.3927497236   -0.5229301181   -1.1423108569
C       -0.9996826549    0.5222555603    0.8207335231
C       -0.5959441672    0.8925841950   -0.6153049465
N        0.8468097623    1.3851157744   -0.5764981534
H        2.5955132811    0.3525320930   -0.1518496641
H        1.0918791866   -1.8764081140   -0.0572816379
H       -1.1893667374   -1.1794818164   -1.4880887407
H       -1.7201026760    1.0546199032    1.4311752493
H       -1.2386355663    1.5908505799   -1.1497529429
C       -0.2743831249   -0.5566167360    1.1584902362
H       -0.2507589827   -1.1076555231    2.0918024225
13   
From optimize.out: Frame 20 / 26, Energy=    -286.8512761882
C        1.5146362753    0.3227388710   -0.2766717834
C        0.6082976169   -0.9000784252   -0.0636661224
C       -0.4162146285   -0.5148761801   -1.1382357531
C       -0.9894937025    0.5230473213    0.8338354611
C       -0.5828617311    0.8908526805   -0.6120549116
N        0.8540426059    1.3693902628   -0.5903132392
H        2.5916967638    0.3446087603   -0.1203832053
H        1.0558324056   -1.8928385336   -0.0662917731
H       -1.1772718580   -1.1556328229   -1.5604656615
H       -1.7674592535    0.9976259109    1.4201830690
H       -1.2433635212    1.5849578924   -1.1268987969
C       -0.2540019372   -0.5403550811    1.1694866658
H       -0.1938390357   -1.0294406565    2.1314760505
13   
From optimize.out: Frame 18 / 26, Energy=    -286.8504452116
C        1.5216268910    0.3068512010   -0.2839601560
C        0.6055271720   -0.9000268192   -0.0736072056
C       -0.4505844099   -0.5082459403   -1.1133630170
C       -0.9951754376    0.4980768325    0.8139384516
C       -0.5601386378    0.9067515879   -0.6069346170
N        0.8714635748    1.3598868923   -0.5940570032
H        2.5925843007    0.3280963112   -0.0906598433
H        1.0326522349   -1.9010563772   -0.0928364673
H       -1.1942034762   -1.1361844565   -1.5688982279
H       -1.8306865126    0.9188413268    1.3648859916
H       -1.2329269270    1.6028481482   -1.0996879205
C       -0.2308346335   -0.5234977162    1.1808258106
H       -0.1293041387   -0.9523409904    2.1643542040
13   
From optimize.out: Frame 16 / 26, Energy=    -286.8462081473
C        1.5327960810    0.3013151693   -0.2892808462
C        0.6116626210   -0.8992283983   -0.0710424218
C       -0.4886584875   -0.4959048602   -1.0627014613
C       -1.0095260121    0.4604447685    0.7705113704
C       -0.5394286696    0.9381157268   -0.6043778838
N        0.8893062467    1.3622507950   -0.5867080059
H        2.6031599844    0.3130991117   -0.0905636400
H        1.0382316232   -1.9004853717   -0.1154959116
H       -1.2368354730   -1.1201496351   -1.5229288387
H       -1.8868345949    0.8485112457    1.2827145603
H       -1.2113906509    1.6395182791   -1.0923766432
C       -0.2126474549   -0.5292463895    1.1903175048
H       -0.0898352136   -0.9182404413    2.1919322170
13   
From optimize.out: Frame 14 / 26, Energy=    -286.8369988490
C        1.5432490763    0.2998889608   -0.2891610044
C        0.6206848550   -0.8993795207   -0.0655436619
C       -0.5268268757   -0.4785127492   -1.0024067791
C       -1.0277285706    0.4295774592    0.7261078658
C       -0.5225387619    0.9707502816   -0.6101817444
N        0.9026619447    1.3677688042   -0.5794214280
H        2.6145076301    0.3027765115   -0.0938731183
H        1.0523663373   -1.8981952932   -0.1359634538
H       -1.2869091687   -1.0989908414   -1.4580318098
H       -1.9382756628    0.7966586877    1.1966998779
H       -1.1872477848    1.6756873342   -1.1050359706
C       -0.1914842264   -0.5499060962    1.2015556252
H       -0.0524587923   -0.9181235385    2.2152556014
13   
From optimize.out: Frame 11 / 26, Energy=    -286.8240569261
C        1.5429589342    0.3002847591   -0.2822721917
C        0.6224533072   -0.9037149001   -0.0627945855
C       -0.5543505069   -0.4591110064   -0.9575367252
C       -1.0333388310    0.3929017314    0.6781828239
C       -0.5054705653    0.9924020440   -0.6116935325
N        0.9124767032    1.3783024825   -0.5674384940
H        2.6148425833    0.2959043452   -0.0897821418
H        1.0549392033   -1.9003374711   -0.1539769415
H       -1.3305412149   -1.0713818704   -1.3903352281
H       -1.9678415687    0.7362022044    1.1182820478
H       -1.1635814073    1.6998813422   -1.1089452496
C       -0.1783525686   -0.5815043839    1.1994053968
H       -0.0141940686   -0.8798292769    2.2289048214
13   
From optimize.out: Frame 9 / 26, Energy=    -286.8212493953
C        1.5433686012    0.3052357080   -0.2490583422
C        0.6337468318   -0.9030912789   -0.0541940367
C       -0.5539635662   -0.4553357591   -0.9333046538
C       -1.0355531007    0.3742476356    0.6678606852
C       -0.4967851185    0.9970161753   -0.6183220675
N        0.9126507392    1.3861194656   -0.5239000030
H        2.6246309630    0.2838083747   -0.1236816091
H        1.0838391695   -1.8850021251   -0.2093656309
H       -1.3735146154   -1.0495206107   -1.3132871472
H       -1.9931354922    0.7285843776    1.0458580246
H       -1.1410721074    1.7088667976   -1.1270511135
C       -0.2163923613   -0.6504047164    1.1947602100
H        0.0121800571   -0.8405240441    2.2436856840
13   
From optimize.out: Frame 7 / 26, Energy=    -286.8110639237
C        1.5439057194    0.3209258901   -0.2198319876
C        0.6542252707   -0.8967909842   -0.0366057459
C       -0.5448375059   -0.4579474726   -0.8933058208
C       -1.0189354718    0.3667534427    0.6868244827
C       -0.4901116467    0.9937052648   -0.6461555857
N        0.8995704829    1.3970496403   -0.4892292603
H        2.6312011802    0.2978081858   -0.1830773425
H        1.1155924196   -1.8612805383   -0.2580099364
H       -1.3972225490   -1.0279145313   -1.2397876475
H       -1.9794578650    0.7667596822    1.0066258767
H       -1.1232746857    1.6987923847   -1.1757720614
C       -0.2592737714   -0.7189287051    1.1945407756
H       -0.0313815772   -0.8789322591    2.2537842531
13   
From optimize.out: Frame 4 / 26, Energy=    -286.7730641996
C        1.5424596920    0.3357209977   -0.2018393352
C        0.6728199062   -0.8863988094   -0.0161921520
C       -0.5311652578   -0.4609708021   -0.8504672764
C       -1.0018070358    0.3596037782    0.7191190634
C       -0.4836130184    0.9947595189   -0.6846533786
N        0.8791883904    1.4103313077   -0.4681123684
H        2.6287533231    0.3179936120   -0.2419198572
H        1.1358791387   -1.8374906533   -0.2931105006
H       -1.4112770559   -1.0064363424   -1.1825175281
H       -1.9573387899    0.8000184713    0.9921129015
H       -1.0964570444    1.6938081849   -1.2475216992
C       -0.2947649439   -0.7778672655    1.2042853434
H       -0.0826773041   -0.9430719981    2.2708167875
13   
From optimize.out: Frame 2 / 26, Energy=    -286.7268543876
C        1.5395697273    0.3484077972   -0.1885626325
C        0.6897357917   -0.8732710882    0.0078619475
C       -0.5120118513   -0.4665559148   -0.8097815696
C       -0.9829042602    0.3549432717    0.7525857385
C       -0.4786783414    0.9997013697   -0.7223617114
N        0.8523399486    1.4284410156   -0.4535860593
H        2.6197067911    0.3369679856   -0.3025597652
H        1.1504346668   -1.8132950919   -0.3197075293
H       -1.4207334678   -0.9896344969   -1.1397294024
H       -1.9300605585    0.8298916231    0.9851655059
H       -1.0662077886    1.6951524691   -1.3240863115
C       -0.3257140299   -0.8343988796    1.2207918810
H       -0.1354766279   -1.0163500605    2.2939699084
13   
C6H6N->C6H6N atoms 1-13 frame 233 charge -0.000 sz -1.000 sz^2 0.704
C        1.5360660169    0.3571042282   -0.1754509548
C        0.7057808334   -0.8601175915    0.0363777277
C       -0.4859448383   -0.4791293465   -0.7723974133
C       -0.9610619447    0.3588731584    0.7779640498
C       -0.4784067530    1.0137187110   -0.7550884058
N        0.8143675902    1.4594319901   -0.4409223174
H        2.6052970922    0.3478629626   -0.3599773646
H        1.1619104605   -1.7911445621   -0.3391035789
H       -1.4314349888   -0.9878973232   -1.1140669847
H       -1.8973463259    0.8635056209    0.9730324640
H       -1.0408487154    1.7097390385   -1.3965820181
C       -0.3468647327   -0.8935865322    1.2432291169
H       -0.1815136944   -1.0983603543    2.3229856792
13   
C6H6N->C6H6N atoms 1-13 frame 236 charge -0.000 sz -1.000 sz^2 0.679
C        1.5180779096    0.3648134417   -0.1659161069
C        0.7199400224   -0.8518601255    0.0675815529
C       -0.4486178135   -0.4958637295   -0.7393758878
C       -0.9322029809    0.3732414852    0.7920455461
C       -0.4811081586    1.0328285644   -0.7776032751
N        0.7686869118    1.4966933772   -0.4289526781
H        2.5759263545    0.3510780570   -0.4093756347
H        1.1686705595   -1.7764904392   -0.3498712493
H       -1.4339426288   -0.9989350704   -1.1075605888
H       -1.8544476734    0.9032028401    0.9526717986
H       -1.0251483619    1.7342947397   -1.4542753689
C       -0.3586067334   -0.9505462435    1.2660719913
H       -0.2172274074   -1.1824568974    2.3545599007
13   
C6H6N->C6H6N atoms 1-13 frame 238 charge -0.000 sz -1.000 sz^2 0.632
C        1.5549491473    0.3924135855   -0.1775971316
C        0.7469081810   -0.8323458273    0.0729221826
C       -0.4296200050   -0.5113675434   -0.6897739331
C       -0.9355140878    0.3984495032    0.7962934120
C       -0.4721296682    1.0106437740   -0.7802866199
N        0.7400006487    1.4892002445   -0.4539005486
H        2.5939400269    0.3445237029   -0.4689204135
H        1.1489119155   -1.7746249981   -0.3091452149
H       -1.4134772599   -0.9127247140   -1.1385360763
H       -1.8663868661    0.9262948814    0.9383709982
H       -1.0421484553    1.6831986704   -1.4395049719
C       -0.3848685557   -0.9473912405    1.2655864926
H       -0.2405650215   -1.2662700386    2.3844918243
13   
C6H6N->C6H6N atoms 1-13 frame 240 charge -0.000 sz -1.000 sz^2 0.577
C        1.5915342229    0.4192293408   -0.1949837351
C        0.7712928140   -0.8160821248    0.0740743564
C       -0.4201241796   -0.5206263363   -0.6434897436
C       -0.9403438983    0.4259179656    0.7990458071
C       -0.4625154681    0.9881750287   -0.7823574197
N        0.7176599482    1.4786148723   -0.4829092482
H        2.6150369474    0.3356313111   -0.5251383245
H        1.1283836372   -1.7755131088   -0.2617743727
H       -1.3739636622   -0.8285494967   -1.1653200234
H       -1.8817051640    0.9500083745    0.9334285940
H       -1.0656773586    1.6262909984   -1.4137989947
C       -0.4128731402   -0.9391904929    1.2652580423
H       -0.2667046987   -1.3439063320    2.3979650619
13   
C6H6N->C6H6N atoms 1-13 frame 242 charge +0.000 sz -1.000 sz^2 0.527
C        1.6276975011    0.4441620446   -0.2174792016
C        0.7935099439   -0.8032221668    0.0715825377
C       -0.4208095858   -0.5219962486   -0.6002694897
C       -0.9464752223    0.4560998417    0.8016761495
C       -0.4522248497    0.9655136800   -0.7817539791
N        0.7043824684    1.4657233840   -0.5143394822
H        2.6409920695    0.3265087890   -0.5772354175
H        1.1109843967   -1.7832952798   -0.2087154298
H       -1.3182915010   -0.7547193086   -1.1878212219
H       -1.8980611378    0.9743603422    0.9391944837
H       -1.0990527127    1.5680730148   -1.3783257485
C       -0.4434258915   -0.9259743075    1.2659208472
H       -0.2992254788   -1.4112337849    2.3875659521
13   
C6H6N->C6H6N atoms 1-13 frame 245 charge +0.000 sz -1.000 sz^2 0.623
C        1.6630646880    0.4657414260   -0.2439195577
C        0.8140209940   -0.7940135746    0.0658346329
C       -0.4311905164   -0.5140866223   -0.5601522428
C       -0.9532956858    0.4889337831    0.8057312393
C       -0.4413712296    0.9433305446   -0.7761277618
N        0.7037831652    1.4517554130   -0.5460632335
H        2.6722917521    0.3202320708   -0.6225719654
H        1.1007159176   -1.8011047866   -0.1515127257
H       -1.2545561565   -0.7026050221   -1.2088696639
H       -1.9120925442    0.9985419703    0.9564223268
H       -1.1444605096    1.5143112035   -1.3348657718
C       -0.4764611324   -0.9079415314    1.2679176692
H       -0.3404487425   -1.4630948743    2.3481770544
13   
C6H6N->C6H6N atoms 1-13 frame 247 charge -0.000 sz -1.000 sz^2 0.643
C        1.6960169421    0.4816959106   -0.2723131252
C        0.8329000582   -0.7891920960    0.0572153494
C       -0.4490547848   -0.4969590459   -0.5237622569
C       -0.9595676410    0.5232659093    0.8130849712
C       -0.4308838052    0.9234998958   -0.7632433730
N        0.7195669273    1.4381752188   -0.5754135597
H        2.7073393246    0.3210865931   -0.6562541897
H        1.1003353064   -1.8274081891   -0.0933526021
H       -1.1976993669   -0.6865652317   -1.2338753424
H       -1.9203028194    1.0204300852    0.9841930381
H       -1.1984055424    1.4707739460   -1.2847930569
C       -0.5102462816   -0.8859918232    1.2709512973
H       -0.3899983171   -1.4928111729    2.2775628499
13   
From optimize.out: Frame 2 / 24, Energy=    -286.6749677044
C        1.7244603283    0.4910891703   -0.3003961954
C        0.8497794685   -0.7886888092    0.0466655593
C       -0.4701619088   -0.4749323208   -0.4915581740
C       -0.9642577899    0.5570186623    0.8244186959
C       -0.4223081601    0.9082948128   -0.7439544679
N        0.7491815575    1.4258420754   -0.6012459959
H        2.7421383549    0.3308493720   -0.6771622665
H        1.1075642934   -1.8538022379   -0.0391706848
H       -1.1583946540   -0.7080499705   -1.2639813511
H       -1.9229912938    1.0383497878    1.0173741827
H       -1.2493577470    1.4384720456   -1.2304460673
C       -0.5420964066   -0.8619885456    1.2734425439
H       -0.4435560424   -1.5024540422    2.1860142210
13   
From optimize.out: Frame 5 / 24, Energy=    -286.7529313460
C        1.7167230891    0.4790458061   -0.3180446308
C        0.8533517515   -0.7936105294    0.0317065671
C       -0.4884033858   -0.4714181164   -0.4803568191
C       -0.9694050489    0.5708841035    0.8342380541
C       -0.4159862311    0.9139852148   -0.7234978697
N        0.7967642357    1.4258284789   -0.6185771228
H        2.7449100820    0.3411845387   -0.6635452482
H        1.1208438926   -1.8622608220   -0.0102170239
H       -1.1531871454   -0.7675515979   -1.2814729948
H       -1.9304842138    1.0322974046    1.0438693572
H       -1.2623109215    1.4448015248   -1.1869101024
C       -0.5516162600   -0.8330474039    1.2565422502
H       -0.4611998445   -1.4801386019    2.1162655832
13   
From optimize.out: Frame 7 / 24, Energy=    -286.7900846911
C        1.6712810785    0.4380956206   -0.3116917146
C        0.8428475933   -0.8011134567    0.0132920697
C       -0.5032232759   -0.4951341880   -0.4949489556
C       -0.9751821401    0.5724580355    0.8369916951
C       -0.4219821798    0.9334600024   -0.6986850340
N        0.8471384919    1.4203653550   -0.6215646664
H        2.7167624134    0.3475959289   -0.6020074492
H        1.1417838145   -1.8518625670   -0.0110253797
H       -1.1756111059   -0.8419145524   -1.2776845751
H       -1.9423676720    1.0149024782    1.0614756865
H       -1.2460237925    1.4838161833   -1.1560011194
C       -0.5318731668   -0.7943295504    1.1969732241
H       -0.4235500586   -1.4263392894    2.0648762184
13   
From optimize.out: Frame 9 / 24, Energy=    -286.8138878907
C        1.6407280414    0.4049958286   -0.3042443129
C        0.8339807623   -0.8114075408   -0.0013504780
C       -0.5153588575   -0.5252833557   -0.5071934444
C       -0.9781899010    0.5987738405    0.8441931015
C       -0.4375179929    0.9444774331   -0.6638665674
N        0.8783770091    1.4105748437   -0.6182297831
H        2.7018929075    0.3582577486   -0.5376068760
H        1.1593015876   -1.8489438122   -0.0091448018
H       -1.1870880968   -0.9221811112   -1.2721950039
H       -1.9455878056    1.0287712442    1.0870457470
H       -1.2419692145    1.5101905091   -1.1234421608
C       -0.5157307866   -0.7584703669    1.1205653943
H       -0.3928376531   -1.3897552611    1.9854691856
13   
From optimize.out: Frame 12 / 24, Energy=    -286.8306032373
C        1.6204234884    0.3819370577   -0.3008100900
C        0.8264177980   -0.8236566378   -0.0175178285
C       -0.5233978220   -0.5609751837   -0.5234786565
C       -0.9775430644    0.6365548412    0.8591965345
C       -0.4579693560    0.9489677550   -0.6262004586
N        0.8984302604    1.4016174574   -0.6118389531
H        2.6931244401    0.3704476938   -0.4762689233
H        1.1738276768   -1.8506982695   -0.0094090248
H       -1.1851609757   -1.0068643713   -1.2750320816
H       -1.9387989846    1.0611834885    1.1278094749
H       -1.2444601006    1.5272059241   -1.0939223816
C       -0.5073379231   -0.7234220245    1.0450065660
H       -0.3775554373   -1.3622977311    1.9024658226
13   
From optimize.out: Frame 14 / 24, Energy=    -286.8350894723
C        1.6053250525    0.3661418408   -0.3058118900
C        0.8188081693   -0.8372859972   -0.0381779742
C       -0.5316249146   -0.5961274686   -0.5506012843
C       -0.9666335891    0.6787744061    0.8815728255
C       -0.4817492477    0.9509372371   -0.5884431769
N        0.9073645343    1.3952982281   -0.6154951130
H        2.6876270485    0.3850505322   -0.4076143935
H        1.1891555436   -1.8545810438   -0.0094532175
H       -1.1757937102   -1.0919873052   -1.2864740008
H       -1.9182628180    1.0979452384    1.1865901318
H       -1.2487739591    1.5391660518   -1.0762228495
C       -0.5041347749   -0.6881910531    0.9818608717
H       -0.3813073348   -1.3451406666    1.8282700709
13   
From optimize.out: Frame 16 / 24, Energy=    -286.8363058163
C        1.5915508617    0.3613458702   -0.3213849148
C        0.8092937066   -0.8459730051   -0.0556615529
C       -0.5441262438   -0.6211245502   -0.5815348223
C       -0.9355886557    0.7202391810    0.9100473995
C       -0.5035884986    0.9559245801   -0.5580661406
N        0.9047196463    1.3937417333   -0.6382937808
H        2.6785499002    0.4036294734   -0.3344156721
H        1.2061642769   -1.8520156951   -0.0012731202
H       -1.1690571625   -1.1698876330   -1.2916455628
H       -1.8791734223    1.1226537777    1.2595359305
H       -1.2449350481    1.5456966354   -1.0872507219
C       -0.4978156689   -0.6591483597    0.9383277392
H       -0.4159936918   -1.3550820081    1.7616152192
13   
From optimize.out: Frame 18 / 24, Energy=    -286.8364270756
C        1.5822775951    0.3668570818   -0.3422370443
C        0.8009684703   -0.8464107846   -0.0589933534
C       -0.5563288608   -0.6317798022   -0.6031832896
C       -0.8892459017    0.7556719287    0.9373472996
C       -0.5209717014    0.9630778738   -0.5426846928
N        0.8928121977    1.3948149182   -0.6672621601
H        2.6680520509    0.4237900514   -0.2848241633
H        1.2225576115   -1.8420445298    0.0110931796
H       -1.1617560920   -1.2359314557   -1.2793169360
H       -1.8286240034    1.1280045236    1.3315265466
H       -1.2348025351    1.5496906842   -1.1159591304
C       -0.4780274478   -0.6397168361    0.9145652793
H       -0.4969113833   -1.3860236533    1.6999284649
13   
From optimize.out: Frame 21 / 24, Energy=    -286.8364809610
C        1.5797595227    0.3766049864   -0.3572455777
C        0.7979042647   -0.8443779529   -0.0431111538
C       -0.5628765377   -0.6285921379   -0.6111708050
C       -0.8440081132    0.7800246991    0.9542323089
C       -0.5352087328    0.9654356961   -0.5414929157
N        0.8762405964    1.3928060871   -0.6899923211
H        2.6638223518    0.4439288197   -0.2750963909
H        1.2372043399   -1.8348894943    0.0077838733
H       -1.1448581808   -1.2852516679   -1.2534763793
H       -1.7782917998    1.1174756900    1.3917923086
H       -1.2282503848    1.5541172077   -1.1402641488
C       -0.4386324589   -0.6305127574    0.9118020884
H       -0.6228048675   -1.4067691755    1.6462391130
13   
From optimize.out: Frame 23 / 24, Energy=    -286.8364925738
C        1.5759077523    0.3862849912   -0.3525875869
C        0.7980349586   -0.8453617488   -0.0272021465
C       -0.5583040882   -0.6281277579   -0.6147900844
C       -0.8363400503    0.7827306019    0.9489513689
C       -0.5519123186    0.9466883558   -0.5497012374
N        0.8572612321    1.3904137537   -0.6922082380
H        2.6604774503    0.4587931891   -0.2783219033
H        1.2467431312   -1.8337616816   -0.0000151575
H       -1.1139007630   -1.2919700177   -1.2708381960
H       -1.7143076626    1.1622167488    1.4593674073
H       -1.2387551793    1.5311178208   -1.1616733598
C       -0.4355064846   -0.6373006961    0.9168054089
H       -0.6893979780   -1.4217235593    1.6222137245
