13   
From optimize.out: Frame 1 / 2, Energy=    -286.8549095738
C        1.6801790246    0.3941026087   -0.1783820193
C        1.1262118113   -0.8348490310   -0.2685289378
C       -0.3162841307   -1.0621848678   -0.0823204238
C       -1.1557279371    0.3278757744    0.0469936080
C       -0.3269541053    1.5324844040   -0.1484785026
N        0.9598677316    1.5898455975   -0.1662576803
H        2.7570140642    0.5227856985   -0.2501939659
H        1.7478113132   -1.6980287218   -0.4937562742
H       -0.7575702086   -1.9017382680   -0.6224630194
H       -2.1622104709    0.3916870516   -0.3711500977
H       -0.8676481845    2.4600622154   -0.3521833492
C       -0.9589916683   -0.6131773555    1.1517287765
H       -1.7256972399   -1.1088651055    1.7349918851
13   
From optimize.out: Frame 23 / 24, Energy=    -286.8549095738
C        1.6869879154    0.3946695695   -0.2053873622
C        1.1357125477   -0.8383023098   -0.2555287470
C       -0.3063225027   -1.0592235718   -0.0528198935
C       -1.1539628232    0.3090406151    0.0099070048
C       -0.3236524758    1.5294245332   -0.1360384136
N        0.9632566151    1.5925045057   -0.1553976739
H        2.7591303522    0.5274098424   -0.3222779428
H        1.7490015026   -1.7042206561   -0.4917273872
H       -0.7326970385   -1.9189544806   -0.5735280565
H       -2.1476079541    0.3711048761   -0.4373246662
H       -0.8747326254    2.4666370393   -0.2465830705
C       -0.9813650724   -0.5913805561    1.1554990971
H       -1.7737484408   -1.0787094068    1.7112071115
13   
From optimize.out: Frame 22 / 24, Energy=    -286.8549035522
C        1.6943817982    0.3974321842   -0.2361018862
C        1.1402864440   -0.8314930595   -0.2356203799
C       -0.2984790271   -1.0334930731   -0.0316913538
C       -1.1614442617    0.3060659823    0.0086038361
C       -0.3239094612    1.5187820097   -0.1382349531
N        0.9647324351    1.5885697021   -0.1637534495
H        2.7644501348    0.5223472053   -0.3777694005
H        1.7358996040   -1.7123682919   -0.4589152805
H       -0.7105243402   -1.9100209270   -0.5378041875
H       -2.1448318169    0.3594480579   -0.4630880809
H       -0.8701117326    2.4646524814   -0.1825124456
C       -0.9932678324   -0.5654514159    1.1670324855
H       -1.7971819440   -1.1044708556    1.6498550960
13   
From optimize.out: Frame 21 / 24, Energy=    -286.8548897380
C        1.6882457787    0.4008047268   -0.2677233490
C        1.1407286885   -0.8312398980   -0.2667784373
C       -0.2764574287   -1.0557431223    0.0145989434
C       -1.1773850850    0.3177925746   -0.0033096032
C       -0.3343665315    1.5032812662   -0.1332883799
N        0.9566503386    1.5750107289   -0.1535529789
H        2.7609560564    0.5273621286   -0.3896912861
H        1.7667298052   -1.7049934024   -0.4299855169
H       -0.7369814866   -1.9095303083   -0.4845762353
H       -2.1650913617    0.3765404194   -0.4629850679
H       -0.8361154041    2.4755996996   -0.1614601297
C       -0.9971827371   -0.5318643833    1.1599814551
H       -1.7897306325   -1.1430204296    1.5787705858
13   
From optimize.out: Frame 20 / 24, Energy=    -286.8548787835
C        1.6895871866    0.3915535447   -0.2961482788
C        1.1608424990   -0.8412132505   -0.2831718040
C       -0.2331568914   -1.0692373252    0.0180146811
C       -1.2255918554    0.3173625095   -0.0174088464
C       -0.3554454510    1.4749387735   -0.1418460118
N        0.9426366803    1.5452347928   -0.1676593233
H        2.7652802388    0.5246153543   -0.3815291997
H        1.8261785020   -1.6998438645   -0.3629936914
H       -0.7699862193   -1.8517963334   -0.5061654402
H       -2.2322932464    0.3973628349   -0.4176475651
H       -0.7989587192    2.4776914221   -0.1486681158
C       -1.0006316773   -0.5061661445    1.1416624964
H       -1.7684610464   -1.1605023137    1.5635610989
13   
From optimize.out: Frame 19 / 24, Energy=    -286.8548201052
C        1.6827257518    0.3901349600   -0.3087956023
C        1.1700988885   -0.8429219281   -0.2954373493
C       -0.2034209835   -1.0826007091    0.0238928825
C       -1.2549148510    0.3079553549   -0.0375394827
C       -0.3632378511    1.4459316253   -0.1537198125
N        0.9262953751    1.5193732776   -0.1742627225
H        2.7592918657    0.5327722583   -0.3560425190
H        1.8615499703   -1.6845879929   -0.3308520542
H       -0.8345847658   -1.7744115037   -0.5025473379
H       -2.2664264396    0.3976190843   -0.4055593028
H       -0.7553174074    2.4713828248   -0.1489992663
C       -0.9865007110   -0.5010490006    1.1226720395
H       -1.7355588423   -1.1795982508    1.5671905275
13   
From optimize.out: Frame 18 / 24, Energy=    -286.8547031652
C        1.6645172758    0.3938024458   -0.2900906754
C        1.1375653350   -0.8426290000   -0.2834851196
C       -0.2413375185   -1.0896034182   -0.0035579649
C       -1.2397317251    0.3000736922   -0.0513610703
C       -0.3650731651    1.4474654440   -0.1643934208
N        0.9201535910    1.5250922472   -0.1734045095
H        2.7427427185    0.5265912510   -0.3090621907
H        1.8326714492   -1.6820881694   -0.2924954102
H       -0.8914066641   -1.7481772951   -0.5483420711
H       -2.2544209913    0.3635237271   -0.4113008380
H       -0.7540024067    2.4744084806   -0.1653536402
C       -0.9166846744   -0.4822697590    1.1152137933
H       -1.6349932243   -1.1861896461    1.5776331175
13   
From optimize.out: Frame 17 / 24, Energy=    -286.8545971168
C        1.6458240049    0.3975061028   -0.2683554990
C        1.1005949356   -0.8426982516   -0.2678826207
C       -0.2878429193   -1.0960669688   -0.0348157636
C       -1.2185477387    0.2942406478   -0.0615889075
C       -0.3661478485    1.4556078771   -0.1735692760
N        0.9167386616    1.5366561708   -0.1717973644
H        2.7259183554    0.5171126014   -0.2632505864
H        1.7952144062   -1.6828928743   -0.2559310213
H       -0.9362397345   -1.7376963516   -0.6026600231
H       -2.2363521818    0.3274741332   -0.4178740141
H       -0.7615405033    2.4800403517   -0.1822635678
C       -0.8446501246   -0.4611299329    1.1114142035
H       -1.5329693130   -1.1881535057    1.5885744404
13   
From optimize.out: Frame 15 / 24, Energy=    -286.8541353348
C        1.6315512537    0.3957582548   -0.2494766602
C        1.0707388915   -0.8467169849   -0.2504042864
C       -0.3219507589   -1.0901529212   -0.0635584235
C       -1.2182024255    0.2856145465   -0.0705533322
C       -0.3712249434    1.4561069841   -0.1873851089
N        0.9115349901    1.5380843226   -0.1765537465
H        2.7117814081    0.5063537053   -0.2168921468
H        1.7613456238   -1.6891980449   -0.2093717475
H       -0.9672512516   -1.7079658065   -0.6623133918
H       -2.2426955281    0.2948898549   -0.4083542307
H       -0.7639034724    2.4807645161   -0.1933437989
C       -0.7729018080   -0.4391256483    1.0938552198
H       -1.4288219793   -1.1844127785    1.5943516536
13   
From optimize.out: Frame 13 / 24, Energy=    -286.8535224494
C        1.6211481702    0.3897526250   -0.2329807725
C        1.0474217534   -0.8539684456   -0.2322761688
C       -0.3451864209   -1.0752828774   -0.0906590977
C       -1.2340559269    0.2747852098   -0.0777826731
C       -0.3793535229    1.4504962384   -0.2042394985
N        0.9050608581    1.5314880616   -0.1857762479
H        2.7001176720    0.4949956730   -0.1709270067
H        1.7314854738   -1.6998477924   -0.1572997851
H       -0.9860729072   -1.6639685768   -0.7262157621
H       -2.2676902841    0.2652707731   -0.3865819015
H       -0.7624836899    2.4774087225   -0.2001702956
C       -0.7037923943   -0.4161082843    1.0674523739
H       -1.3265987812   -1.1750213271    1.5974568357
13   
From optimize.out: Frame 11 / 24, Energy=    -286.8515276178
C        1.6156099335    0.3818454294   -0.2124250493
C        1.0365570697   -0.8674831400   -0.2261301322
C       -0.3516595752   -1.0728094767   -0.1380103139
C       -1.2521512431    0.2590007416   -0.0702471866
C       -0.3887258977    1.4400676739   -0.2137328410
N        0.8990300636    1.5207678754   -0.1859709874
H        2.6919629688    0.4884887680   -0.1244828720
H        1.7170937708   -1.7156388130   -0.1391265530
H       -0.9813802696   -1.6217437589   -0.8198062478
H       -2.2902774334    0.2282493149   -0.3650779404
H       -0.7674559380    2.4672615713   -0.2181308955
C       -0.6624920365   -0.3747615895    1.0774229158
H       -1.2661114130   -1.1332445962    1.6357181033
13   
From optimize.out: Frame 11 / 24, Energy=    -286.8515276178
C        1.6116038179    0.3734929320   -0.1902061076
C        1.0298266196   -0.8831099999   -0.2243964687
C       -0.3526824922   -1.0754174404   -0.1929413916
C       -1.2700963755    0.2415155513   -0.0574074796
C       -0.3983796062    1.4282375441   -0.2203617206
N        0.8932303544    1.5090173789   -0.1825894452
H        2.6849265584    0.4837827783   -0.0777676329
H        1.7080896816   -1.7330667171   -0.1336616012
H       -0.9688322136   -1.5809808365   -0.9241363714
H       -2.3108699508    0.1882809830   -0.3443937556
H       -0.7750064620    2.4548665144   -0.2404530100
C       -0.6311350757   -0.3267104576    1.1012553911
H       -1.2206748558   -1.0799082306    1.6870595934
13   
From optimize.out: Frame 10 / 24, Energy=    -286.8474564242
C        1.6069995807    0.3645269832   -0.1685621598
C        1.0241019288   -0.8970368837   -0.2313428831
C       -0.3562097032   -1.0832535805   -0.2572848712
C       -1.2793713981    0.2309545207   -0.0387739221
C       -0.4087603845    1.4216343956   -0.2258190925
N        0.8872310332    1.5016181021   -0.1773842874
H        2.6759613998    0.4757411581   -0.0276383353
H        1.6993272966   -1.7481959836   -0.1296727977
H       -0.9514978087   -1.5625399823   -1.0279904763
H       -2.3212233816    0.1531432682   -0.3201987443
H       -0.7894457368    2.4448720860   -0.2653931419
C       -0.6068849456   -0.2790203205    1.1290542444
H       -1.1802278808   -1.0224437632    1.7410064671
13   
From optimize.out: Frame 9 / 24, Energy=    -286.8397144737
C        1.6021221275    0.3552946306   -0.1472657329
C        1.0188804994   -0.9100992962   -0.2424491790
C       -0.3609321255   -1.0935834073   -0.3259542515
C       -1.2844385347    0.2237642766   -0.0174092578
C       -0.4194577077    1.4175713636   -0.2306942074
N        0.8811550592    1.4963395480   -0.1713173654
H        2.6660960593    0.4661184432    0.0239728345
H        1.6907099021   -1.7621683997   -0.1264082612
H       -0.9319135324   -1.5549150484   -1.1312771234
H       -2.3266094041    0.1204475739   -0.2943908061
H       -0.8071573500    2.4360669363   -0.2915135749
C       -0.5861381857   -0.2316593799    1.1586737998
H       -1.1423168074   -0.9631772408    1.7960331251
13   
From optimize.out: Frame 8 / 24, Energy=    -286.8216786057
C        1.5972255981    0.3460478080   -0.1260189441
C        1.0137073152   -0.9230750590   -0.2539041937
C       -0.3657533281   -1.1041188892   -0.3949335643
C       -1.2891378872    0.2168715402    0.0041713676
C       -0.4301724761    1.4137312733   -0.2355145797
N        0.8750780769    1.4912488665   -0.1651816775
H        2.6561621424    0.4563681706    0.0756642579
H        1.6821129703   -1.7760280962   -0.1232092356
H       -0.9121531794   -1.5482304818   -1.2344195025
H       -2.3315618075    0.0879927752   -0.2684674970
H       -0.8251349990    2.4273725367   -0.3177117581
C       -0.5657128827   -0.1843705456    1.1884231387
H       -1.1046595430   -0.9038098988    1.8511021884
13   
From optimize.out: Frame 7 / 24, Energy=    -286.8085551488
C        1.5912409455    0.3373992836   -0.1023467773
C        1.0018328264   -0.9343770183   -0.2610871562
C       -0.3784717102   -1.1067564105   -0.4583258356
C       -1.2876789253    0.2059978074    0.0205816322
C       -0.4406653479    1.4105893768   -0.2417775511
N        0.8698646428    1.4888109473   -0.1575487921
H        2.6450455418    0.4443770851    0.1297135819
H        1.6630428531   -1.7907034867   -0.1147260030
H       -0.9046875361   -1.5320908948   -1.3307703067
H       -2.3294754340    0.0458135567   -0.2468396377
H       -0.8474395592    2.4174223590   -0.3420791154
C       -0.5336689683   -0.1376365449    1.2092884063
H       -1.0489393287   -0.8488460607    1.8959175548
13   
From optimize.out: Frame 5 / 24, Energy=    -286.7510879796
C        1.5838852075    0.3333044941   -0.0789070739
C        0.9735632403   -0.9370429152   -0.2531229391
C       -0.4109168022   -1.0847775742   -0.4847224987
C       -1.2681446147    0.1865999939    0.0162035900
C       -0.4471506501    1.4105493678   -0.2503901821
N        0.8689102028    1.4951351171   -0.1478378776
H        2.6339065160    0.4294563830    0.1736592171
H        1.6185124803   -1.8031638253   -0.0930345360
H       -0.9366113613   -1.4926235569   -1.3760095861
H       -2.3068627532   -0.0122168569   -0.2450267483
H       -0.8756715127    2.4068584688   -0.3531793917
C       -0.4768456239   -0.1074468241    1.1967673050
H       -0.9565743288   -0.8246322720    1.8956007212
13   
From optimize.out: Frame 4 / 24, Energy=    -286.7077971221
C        1.5763549440    0.3299770620   -0.0556594147
C        0.9428139354   -0.9382870946   -0.2427482863
C       -0.4463558368   -1.0589408925   -0.5049301820
C       -1.2457999029    0.1659438626    0.0084742982
C       -0.4529416673    1.4110139713   -0.2593281781
N        0.8686545315    1.5028423357   -0.1378529909
H        2.6228371452    0.4141575288    0.2156728625
H        1.5701354512   -1.8151820128   -0.0693382280
H       -0.9747296115   -1.4496229782   -1.4126407229
H       -2.2810614167   -0.0724427102   -0.2464475895
H       -0.9046814438    2.3962643090   -0.3620494702
C       -0.4163672166   -0.0801457746    1.1789001672
H       -0.8588589117   -0.8055776063    1.8879477350
13   
From optimize.out: Frame 4 / 24, Energy=    -286.7077971221
C        1.5689730008    0.3245730753   -0.0308984317
C        0.9156484026   -0.9456755431   -0.2331844943
C       -0.4797213538   -1.0466104662   -0.5224258787
C       -1.2281355076    0.1505890238   -0.0008726913
C       -0.4631979258    1.4171052753   -0.2659378712
N        0.8662573200    1.5097855125   -0.1230512465
H        2.6121224021    0.3988111989    0.2577333523
H        1.5301513986   -1.8305859462   -0.0495206212
H       -1.0151650156   -1.4178048820   -1.4470225555
H       -2.2593017996   -0.1310197743   -0.2490439477
H       -0.9378595068    2.3915004877   -0.3651492712
C       -0.3547673064   -0.0431961850    1.1550943175
H       -0.7550041085   -0.7774717766    1.8742793396
13   
From optimize.out: Frame 3 / 24, Energy=    -286.6756499965
C        1.5659725421    0.3118619190   -0.0111581808
C        0.9192250704   -0.9789586255   -0.2322743391
C       -0.4865313585   -1.1053973514   -0.5181788644
C       -1.2417690611    0.1683726896   -0.0133597590
C       -0.4898445979    1.4472452191   -0.2580599065
N        0.8547462918    1.5096024155   -0.0924256067
H        2.6084378048    0.3908613741    0.2791211427
H        1.5504199777   -1.8546281966   -0.0582135066
H       -1.0466596742   -1.4556049338   -1.4534980422
H       -2.2678020073   -0.1525585086   -0.2560067605
H       -0.9746094281    2.4171586536   -0.3389428751
C       -0.3183772663    0.0218225589    1.1145400814
H       -0.6732082935   -0.7197772137    1.8384566171
13   
From optimize.out: Frame 2 / 24, Energy=    -286.6254313898
C        1.5637025767    0.3019604422   -0.0065176350
C        0.9329472852   -1.0124882910   -0.2280172608
C       -0.4778102111   -1.1820919765   -0.5054876486
C       -1.2713974553    0.2052613740   -0.0224328068
C       -0.5120363710    1.4828977364   -0.2487810214
N        0.8440874905    1.5077138223   -0.0769443353
H        2.6066933394    0.3914663283    0.2784585629
H        1.5876555803   -1.8709881198   -0.0571422600
H       -1.0529526977   -1.5375471491   -1.4424807080
H       -2.3016081578   -0.1239967921   -0.2538895951
H       -0.9912333592    2.4556605124   -0.3031206579
C       -0.3011758795    0.0661359957    1.0725483981
H       -0.6268721405   -0.6839838828    1.7938069678
13   
From optimize.out: Frame 1 / 24, Energy=    -286.5524627724
C        1.5622959352    0.2965449847   -0.0145691475
C        0.9507759707   -1.0385126471   -0.2216269391
C       -0.4595564500   -1.2548960706   -0.4894842673
C       -1.3065636882    0.2486287458   -0.0268674888
C       -0.5256323099    1.5148621169   -0.2408060098
N        0.8365855625    1.5051268407   -0.0771610927
H        2.6065629972    0.3984400465    0.2612629194
H        1.6285620006   -1.8776608893   -0.0474533566
H       -1.0383743799   -1.6353837307   -1.4208883048
H       -2.3475308961   -0.0628958048   -0.2448365041
H       -0.9884580875    2.4954647526   -0.2679736819
C       -0.3016371525    0.0841121208    1.0384577786
H       -0.6170295021   -0.6738304654    1.7519460946
13   
C5H5N+CH->C6H6N atoms 1-13 frame 110 charge -0.000 sz -1.000 sz^2 0.501
C        1.5608894184    0.2911300074   -0.0226199460
C        0.9686030749   -1.0645346949   -0.2152371843
C       -0.4413043080   -1.3276937074   -0.4734823054
C       -1.3417268021    0.2919922711   -0.0313017775
C       -0.5392270428    1.5468236623   -0.2328317055
N        0.8290842999    1.5025400885   -0.0773778308
H        2.6064326666    0.4054131462    0.2440688010
H        1.6694647928   -1.8843330669   -0.0377653126
H       -1.0237973551   -1.7332116348   -1.3992978166
H       -2.3934495614   -0.0018002368   -0.2357842160
H       -0.9856830619    2.5352654624   -0.2328298233
C       -0.3020983845    0.1020866515    1.0043701827
H       -0.6071877366   -0.6636779486    1.7100889343
13   
C5H5N+CH->C6H6N atoms 1-13 frame 111 charge +0.000 sz -1.000 sz^2 0.507
C        1.5589311364    0.2857171225   -0.0291849616
C        0.9842277697   -1.0911927326   -0.2119175139
C       -0.4225031741   -1.3981681446   -0.4630846524
C       -1.3743980256    0.3352258056   -0.0373414868
C       -0.5531675640    1.5798259852   -0.2283770636
N        0.8226042730    1.5003694189   -0.0772741871
H        2.6035971412    0.4113025656    0.2337910976
H        1.7079339537   -1.8906829216   -0.0322587283
H       -1.0080794198   -1.8258191069   -1.3755119290
H       -2.4364738850    0.0531295482   -0.2216321214
H       -0.9814168218    2.5759000450   -0.2025807145
C       -0.3033649660    0.1209838163    0.9738464306
H       -0.5978904177   -0.6565914017    1.6715258305
13   
C5H5N+CH->C6H6N atoms 1-13 frame 112 charge +0.000 sz -1.000 sz^2 0.520
C        1.5483787621    0.2806232511   -0.0174095229
C        0.9720342517   -1.1190131289   -0.2432324111
C       -0.4013113346   -1.4302034013   -0.5173279898
C       -1.3728652994    0.3690752727   -0.0600757801
C       -0.5680155071    1.6187717465   -0.2633738777
N        0.8265502429    1.5041341685   -0.0737081237
H        2.5701023127    0.4030845450    0.3031412248
H        1.7125676663   -1.8937964995   -0.0762562252
H       -0.9785714359   -1.8485422536   -1.3328197451
H       -2.4348189784    0.0343310731   -0.1532815176
H       -0.9629599170    2.6198169619   -0.2331167008
C       -0.3160709730    0.1450164186    0.9877107587
H       -0.5950197904   -0.6832981540    1.6797499106
13   
C5H5N+CH->C6H6N atoms 1-13 frame 112 charge +0.000 sz -1.000 sz^2 0.520
C        1.5350008420    0.2798869472   -0.0013138526
C        0.9487796536   -1.1170739118   -0.2640930844
C       -0.4042797464   -1.4044166293   -0.5652897008
C       -1.3449498290    0.3595139756   -0.0678931930
C       -0.5670332356    1.6206275883   -0.2884531749
N        0.8293710794    1.5103577600   -0.0703169565
H        2.5435739097    0.3906873612    0.3609760956
H        1.6848642464   -1.8936666845   -0.1056342078
H       -0.9671542163   -1.8097111734   -1.3367856233
H       -2.3943825608   -0.0119722144   -0.1168669387
H       -0.9591719300    2.6195068979   -0.2757932653
C       -0.3189997398    0.1512528298    1.0153841866
H       -0.5856184732   -0.6949927465    1.7160797153
13   
C5H5N+CH->C6H6N atoms 1-13 frame 113 charge +0.000 sz -1.000 sz^2 0.537
C        1.5252602546    0.2836563835    0.0141052446
C        0.9225776254   -1.0945909846   -0.2688136997
C       -0.4269297785   -1.3441367245   -0.5955581546
C       -1.3042566706    0.3188058266   -0.0596125704
C       -0.5545524379    1.5919564756   -0.2982575708
N        0.8326919550    1.5157263082   -0.0670706302
H        2.5288899988    0.3795329879    0.3927803294
H        1.6378400183   -1.8888371351   -0.1061615714
H       -0.9815981544   -1.7316259833   -1.3840981641
H       -2.3427450882   -0.0736485658   -0.1158932844
H       -0.9677237540    2.5810770697   -0.3126556897
C       -0.3026294432    0.1492274533    1.0445247089
H       -0.5668245254   -0.6871431114    1.7567110524
13   
From optimize.out: Frame 1 / 24, Energy=    -286.5632287070
C        1.5155195234    0.2874258753    0.0295245695
C        0.8963752104   -1.0721077254   -0.2735343847
C       -0.4495801450   -1.2838559297   -0.6258270552
C       -1.2635629113    0.2780970766   -0.0513318254
C       -0.5420714559    1.5632849397   -0.3080621115
N        0.8360128797    1.5210949356   -0.0638242559
H        2.5142058711    0.3683784498    0.4245850328
H        1.5908150959   -1.8840075144   -0.1066889428
H       -0.9960423058   -1.6535396403   -1.4314114035
H       -2.2911068532   -0.1353258279   -0.1149196158
H       -0.9762757043    2.5426466740   -0.3495186584
C       -0.2862589050    0.1472020470    1.0736656614
H       -0.5480303002   -0.6792933605    1.7973429895
13   
From optimize.out: Frame 3 / 24, Energy=    -286.6721216232
C        1.5057787798    0.2911953720    0.0449439142
C        0.8701727619   -1.0496244374   -0.2782550757
C       -0.4722305405   -1.2235750575   -0.6560959946
C       -1.2228690999    0.2373882745   -0.0430510699
C       -0.5295904579    1.5346133669   -0.3178666647
N        0.8393338086    1.5264635700   -0.0605778775
H        2.4995217245    0.3572238975    0.4563897769
H        1.5437901133   -1.8791778876   -0.1072163148
H       -1.0104864757   -1.5754531971   -1.4787247035
H       -2.2394685520   -0.1970031690   -0.1139459459
H       -0.9848276655    2.5042162291   -0.3863816744
C       -0.2698883458    0.1451766381    1.1028066512
H       -0.5292360508   -0.6714435994    1.8379749786
13   
From optimize.out: Frame 4 / 24, Energy=    -286.7013606847
C        1.4957745546    0.2948311292    0.0604579950
C        0.8440432202   -1.0273053554   -0.2830971642
C       -0.4945004270   -1.1634956992   -0.6869767826
C       -1.1823576892    0.1968445511   -0.0344256949
C       -0.5171476909    1.5058737452   -0.3277554076
N        0.8425111214    1.5317026446   -0.0574865382
H        2.4844214527    0.3459809392    0.4885473374
H        1.4968287930   -1.8744573881   -0.1076970979
H       -1.0240583869   -1.4976443892   -1.5268669309
H       -2.1881283050   -0.2582463680   -0.1123970807
H       -0.9932950268    2.4657121858   -0.4234921610
C       -0.2535724563    0.1433654981    1.1321779702
H       -0.5105191597   -0.6631614932    1.8790115556
13   
From optimize.out: Frame 5 / 24, Energy=    -286.7106062759
C        1.4783110165    0.2933442170    0.0768264048
C        0.8244097515   -1.0140143331   -0.2913403951
C       -0.5003665276   -1.1195091375   -0.7340061847
C       -1.1542855445    0.1681537854   -0.0153599802
C       -0.5079182395    1.4792191255   -0.3390012464
N        0.8402989495    1.5317158216   -0.0601614118
H        2.4574331168    0.3334446635    0.5278159108
H        1.4592429530   -1.8741858151   -0.1065138827
H       -1.0057751762   -1.4412458549   -1.5959201456
H       -2.1548358449   -0.2952777571   -0.0914520946
H       -0.9975760251    2.4306012888   -0.4633581738
C       -0.2416250208    0.1491459711    1.1649066575
H       -0.4973134088   -0.6413919751    1.9275645415
13   
From optimize.out: Frame 6 / 24, Energy=    -286.7440823765
C        1.4526240873    0.2861435685    0.0940459311
C        0.8121577650   -1.0108935199   -0.3033313853
C       -0.4878690263   -1.0937794352   -0.7987801150
C       -1.1402879920    0.1528864853    0.0152494585
C       -0.5023370301    1.4550622042   -0.3516922452
N        0.8320795303    1.5258904622   -0.0692614973
H        2.4173336618    0.3195426302    0.5747810687
H        1.4323688678   -1.8788863660   -0.1034790938
H       -0.9520183763   -1.4091233187   -1.6878994225
H       -2.1419168648   -0.3050255163   -0.0489697141
H       -0.9971529232    2.3995029635   -0.5060509816
C       -0.2346335275    0.1633714118    1.2011795937
H       -0.4903481719   -0.6046915696    1.9842084027
13   
From optimize.out: Frame 6 / 24, Energy=    -286.7440823765
C        1.4269423300    0.2789443698    0.1112619904
C        0.7999082453   -1.0077733351   -0.3153199612
C       -0.4753740413   -1.0680549133   -0.8635410034
C       -1.1262932577    0.1376222592    0.0458527341
C       -0.4967569445    1.4309101467   -0.3643806887
N        0.8238617661    1.5200662757   -0.0783597506
H        2.3772422806    0.3056433959    0.6217367703
H        1.4055001935   -1.8835859704   -0.1004449160
H       -0.8982724001   -1.3770072502   -1.7798601800
H       -2.1290004859   -0.3147713129   -0.0064958872
H       -0.9967299066    2.3684108998   -0.5487351934
C       -0.2276434419    0.1775939883    1.2374452266
H       -0.4833843374   -0.5679985535    2.0408408589
13   
From optimize.out: Frame 7 / 24, Energy=    -286.7734394401
C        1.3918453271    0.2724829649    0.1298996023
C        0.7827492820   -1.0010078496   -0.3223886776
C       -0.4679726936   -1.0279713646   -0.9122330279
C       -1.1023575854    0.1193090546    0.0697480613
C       -0.4853747636    1.4051693545   -0.3810492879
N        0.8123866974    1.5154013165   -0.0917680387
H        2.3292288235    0.2917532192    0.6684557808
H        1.3729894676   -1.8870965836   -0.0969721195
H       -0.8543840758   -1.3298175479   -1.8572137758
H       -2.1075940409   -0.3201019431    0.0263788943
H       -0.9917729253    2.3362533153   -0.5941018688
C       -0.2123527794    0.1763100490    1.2709712852
H       -0.4673907335   -0.5506839853    2.0902731723
13   
From optimize.out: Frame 9 / 24, Energy=    -286.8090541289
C        1.3555812699    0.2741447040    0.1370835012
C        0.7639861812   -0.9878414911   -0.3066938834
C       -0.4842112290   -0.9743875752   -0.8642517521
C       -1.0657494852    0.1066755584    0.0501754251
C       -0.4643397149    1.3965114769   -0.3966140339
N        0.7999262148    1.5187151451   -0.1080282108
H        2.2963483835    0.2900045142    0.6736416382
H        1.3497879609   -1.8835344610   -0.0950473128
H       -0.8820232236   -1.2729123146   -1.8178358909
H       -2.0762053591   -0.3058874103   -0.0017984631
H       -0.9758397571    2.3285388714   -0.6089641167
C       -0.1823868618    0.1238245256    1.2660221252
H       -0.4348743795   -0.6138515436    2.0723109741
13   
From optimize.out: Frame 10 / 24, Energy=    -286.8230493891
C        1.3397536509    0.2723228805    0.1285566179
C        0.7810449471   -0.9892789331   -0.2949439131
C       -0.4726423653   -0.9667164201   -0.7949137683
C       -1.0667222914    0.1230182294    0.0302064612
C       -0.4559124020    1.4054909917   -0.4002344345
N        0.7852878793    1.5151496034   -0.1247075079
H        2.2929993174    0.2988969824    0.6433183551
H        1.3831244842   -1.8812452570   -0.1064196803
H       -0.9015569391   -1.2713093447   -1.7426031574
H       -2.0867143473   -0.2463734089   -0.0291151711
H       -0.9533856565    2.3499688873   -0.6008520907
C       -0.1907141268    0.0701191889    1.2529340411
H       -0.4545621504   -0.6800433999    2.0387742482
13   
From optimize.out: Frame 11 / 24, Energy=    -286.8332354354
C        1.3440406360    0.2674518757    0.1131003638
C        0.8185609524   -1.0016744287   -0.2930866358
C       -0.4415131469   -0.9965808275   -0.7464873976
C       -1.0962600956    0.1540967531    0.0225953153
C       -0.4607027260    1.4218543389   -0.3942003877
N        0.7740316168    1.5066786657   -0.1358035761
H        2.3099437226    0.3108447877    0.6031554132
H        1.4449845949   -1.8816159230   -0.1234282201
H       -0.8988209244   -1.3114912443   -1.6825640996
H       -2.1253897049   -0.1764864720   -0.0382926276
H       -0.9351475204    2.3819604557   -0.5830959605
C       -0.2259807354    0.0403567238    1.2436562408
H       -0.5077466690   -0.7153947052    2.0144515718
13   
From optimize.out: Frame 12 / 24, Energy=    -286.8405214169
C        1.3478510509    0.2626298190    0.0981556746
C        0.8558614660   -1.0140639727   -0.2912250916
C       -0.4107227687   -1.0268856603   -0.6981315936
C       -1.1254688042    0.1854474114    0.0150219294
C       -0.4654494447    1.4384987542   -0.3884070031
N        0.7628663388    1.4984136908   -0.1471823859
H        2.3264152074    0.3226865883    0.5635590480
H        1.5068506127   -1.8818538097   -0.1406528362
H       -0.8962104601   -1.3525675337   -1.6225761997
H       -2.1638229267   -0.1060179018   -0.0471340699
H       -0.9169904060    2.4141878871   -0.5656992489
C       -0.2608500488    0.0104703439    1.2342904494
H       -0.5603298165   -0.7509456164    1.9899813274
13   
From optimize.out: Frame 13 / 24, Energy=    -286.8455816218
C        1.3375428418    0.2610230089    0.1026906322
C        0.8726042601   -1.0213603095   -0.2899923444
C       -0.4011579030   -1.0567623237   -0.6709059697
C       -1.1343397670    0.2115036215    0.0114640692
C       -0.4671521969    1.4559437168   -0.3912847842
N        0.7585548224    1.4988870746   -0.1615037496
H        2.3238205559    0.3270079734    0.5547177892
H        1.5442261228   -1.8784862194   -0.1567284630
H       -0.8979595506   -1.4009273294   -1.5878393965
H       -2.1805426976   -0.0482446989   -0.0435689173
H       -0.9082090964    2.4398125457   -0.5647362668
C       -0.2713232843   -0.0107859847    1.2263293838
H       -0.5760641073   -0.7776110755    1.9713580171
13   
From optimize.out: Frame 13 / 24, Energy=    -286.8455816218
C        1.3012870432    0.2646969124    0.1502721883
C        0.8396062141   -1.0161332539   -0.2907710476
C       -0.4379736067   -1.0647501931   -0.7052280633
C       -1.0982804547    0.2124724448    0.0203928967
C       -0.4641687991    1.4634454748   -0.4142519418
N        0.7697010643    1.5147383043   -0.1770200469
H        2.2797553805    0.3113546467    0.6215163838
H        1.5108618848   -1.8729971110   -0.1626128798
H       -0.9057629457   -1.4294878476   -1.6282008614
H       -2.1467603579   -0.0435233730   -0.0094189895
H       -0.9258909097    2.4352929637   -0.6045029962
C       -0.2224593636   -0.0040223878    1.2244336654
H       -0.4999151496   -0.7710865803    1.9753916921
13   
From optimize.out: Frame 15 / 24, Energy=    -286.8495260980
C        1.2754717158    0.2599844782    0.1957038608
C        0.8178480439   -1.0163246753   -0.2919670878
C       -0.4558722655   -1.0394090295   -0.7496622380
C       -1.0785405981    0.2010733223    0.0353371200
C       -0.4702740722    1.4527027992   -0.4399965125
N        0.7749552470    1.5159409250   -0.1899832532
H        2.2417303130    0.2924918038    0.6919825812
H        1.4736114259   -1.8832468542   -0.1619896193
H       -0.9028521139   -1.3951764017   -1.6831257970
H       -2.1301034765   -0.0515010491    0.0337879857
H       -0.9488638017    2.4117694158   -0.6510683411
C       -0.1762917916    0.0052637249    1.2229243142
H       -0.4208186260   -0.7535684594    1.9880569870
13   
From optimize.out: Frame 16 / 24, Energy=    -286.8509243224
C        1.2446505132    0.2540708810    0.2435875086
C        0.7991895510   -1.0190542886   -0.2929487179
C       -0.4707070480   -1.0157441248   -0.7880262467
C       -1.0621606944    0.1923729284    0.0490730536
C       -0.4758368956    1.4432719788   -0.4654178049
N        0.7785443604    1.5140075463   -0.2064087972
H        2.1997571009    0.2770857785    0.7618387771
H        1.4416900009   -1.8946593321   -0.1634646278
H       -0.9009054003   -1.3623868083   -1.7299228412
H       -2.1175931231   -0.0516575396    0.0778409801
H       -0.9671728771    2.3909348910   -0.6970819770
C       -0.1291670424    0.0113211199    1.2166627790
H       -0.3402884455   -0.7395630306    1.9942679141
13   
From optimize.out: Frame 17 / 24, Energy=    -286.8511511751
C        1.2005487275    0.2477114937    0.3097963462
C        0.7955234042   -1.0238113953   -0.3037530006
C       -0.4835156442   -1.0148329718   -0.8031969149
C       -1.0528367434    0.1937661772    0.0586930365
C       -0.4751014997    1.4423018672   -0.4884216987
N        0.7842551702    1.5075911295   -0.2313286968
H        2.1544730144    0.2736706952    0.8303818398
H        1.4469356877   -1.8940239151   -0.2053688849
H       -0.9082060211   -1.3661156509   -1.7432816342
H       -2.1165005417   -0.0179898890    0.1170905107
H       -0.9687055728    2.3800711871   -0.7491538920
C       -0.0952269601    0.0075825279    1.2126168570
H       -0.2816430211   -0.7359212558    1.9959261320
13   
From optimize.out: Frame 18 / 24, Energy=    -286.8514974168
C        1.1763182539    0.2339154263    0.3726239789
C        0.8262764048   -1.0253019318   -0.3398372906
C       -0.4753113120   -1.0211815490   -0.7996500603
C       -1.0625318859    0.1901696182    0.0658663954
C       -0.4723948914    1.4363109778   -0.4978461760
N        0.7895463012    1.4938211201   -0.2344029921
H        2.1395931429    0.2735196173    0.8754533439
H        1.5048592378   -1.8763437806   -0.3107377061
H       -0.9146720984   -1.3745663243   -1.7289842267
H       -2.1364033311    0.0176309737    0.1252212327
H       -0.9608196130    2.3621375576   -0.8014554255
C       -0.1137431979    0.0097910220    1.2423658773
H       -0.3007170108   -0.7199027273    2.0313830493
13   
From optimize.out: Frame 19 / 24, Energy=    -286.8515658299
C        1.1542745535    0.2131885049    0.4279816684
C        0.8579181322   -1.0266001782   -0.3826210156
C       -0.4611778967   -1.0193541344   -0.7852770715
C       -1.0674830359    0.1825730317    0.0645089214
C       -0.4664843919    1.4354995325   -0.5003169733
N        0.7914668520    1.4838156831   -0.2219330971
H        2.1253591797    0.2732183639    0.9144839911
H        1.5580856372   -1.8571490667   -0.4293232545
H       -0.9246838252   -1.3835296851   -1.6954188698
H       -2.1488736141    0.0368291221    0.1097755366
H       -0.9541315627    2.3458253825   -0.8456294478
C       -0.1378516323    0.0179145063    1.2760652522
H       -0.3264183957   -0.7022310627    2.0677043598
13   
From optimize.out: Frame 20 / 24, Energy=    -286.8516119950
C        1.1307581842    0.1921176043    0.4857903477
C        0.8764673018   -1.0245195148   -0.4160253690
C       -0.4468501469   -0.9938174023   -0.7538804919
C       -1.0715300279    0.1710495259    0.0524900222
C       -0.4523512283    1.4380464037   -0.5065574904
N        0.8022172459    1.4734148786   -0.2264190536
H        2.1072443949    0.2862728539    0.9583015879
H        1.5829403247   -1.8368545504   -0.5438004599
H       -0.9413673435   -1.3995120680   -1.6263455562
H       -2.1589980411    0.0620875912    0.0989075424
H       -0.9411244732    2.3332336897   -0.8842069984
C       -0.1514322133    0.0094725993    1.2865185328
H       -0.3359739772   -0.7109916110    2.0752273866
13   
From optimize.out: Frame 21 / 24, Energy=    -286.8516375257
C        1.1027358504    0.1759621229    0.5138341779
C        0.8976236050   -1.0067588705   -0.4520249457
C       -0.4191232215   -1.0179678506   -0.7520418117
C       -1.0913677254    0.1756488072    0.0615384470
C       -0.4365884172    1.4302745990   -0.5112681674
N        0.8132424320    1.4591157367   -0.2278253069
H        2.0770175150    0.2739408757    0.9908585140
H        1.6322223431   -1.7829415735   -0.6296973637
H       -0.9172659066   -1.4650045860   -1.6028849240
H       -2.1805049856    0.1050744502    0.1183717957
H       -0.9128900445    2.3224735640   -0.9103555821
C       -0.1823712136    0.0199486449    1.3019757531
H       -0.3827302311   -0.6897659198    2.0995194137
13   
From optimize.out: Frame 22 / 24, Energy=    -286.8516562724
C        1.1014621814    0.1737308651    0.5300534804
C        0.8833265978   -0.9996492375   -0.4489973175
C       -0.4253386151   -0.9992764089   -0.7560688998
C       -1.0815246901    0.1623125358    0.0428980772
C       -0.4206208263    1.4441065146   -0.4930694734
N        0.8216073478    1.4817215684   -0.2034725176
H        2.0726414355    0.2521310828    1.0143486380
H        1.6401976510   -1.7258889941   -0.7184834780
H       -0.9302464083   -1.5571403962   -1.5349797986
H       -2.1711527261    0.1355878840    0.1114756137
H       -0.9075819687    2.3039025196   -0.9460515925
C       -0.1951759647    0.0257209240    1.3078912220
H       -0.3875940142   -0.6972588575    2.0944560462
13   
From optimize.out: Frame 23 / 24, Energy=    -286.8516580738
C        1.1006280822    0.1755093793    0.5265008162
C        0.8749226785   -0.9935464478   -0.4355424288
C       -0.4318276257   -0.9918804696   -0.7427402693
C       -1.0820313971    0.1663366596    0.0269970025
C       -0.4060722097    1.4619212965   -0.4755972598
N        0.8405068896    1.4914441390   -0.2080811397
H        2.0548307400    0.2294929882    1.0458337447
H        1.6483879224   -1.6680400701   -0.7820767738
H       -0.9532296756   -1.6327046530   -1.4451694867
H       -2.1681618104    0.1647155912    0.1141972035
H       -0.9012923509    2.2991554937   -0.9639683412
C       -0.1977656953    0.0232552779    1.2849693566
H       -0.3788955479   -0.7256591849    2.0546775757
13   
From optimize.out: Frame 1 / 2, Energy=    -286.8516348652
C        1.0984280998    0.1833698482    0.5383745806
C        0.8752620403   -0.9764411698   -0.4447151440
C       -0.4341580857   -0.9841728305   -0.7444337796
C       -1.0770136966    0.1721538520    0.0477733834
C       -0.3961764528    1.4568939510   -0.4667576251
N        0.8526068123    1.4877831580   -0.2047264531
H        2.0458961776    0.2017927456    1.0748897167
H        1.6543758370   -1.6244571172   -0.8307698462
H       -0.9636497254   -1.6338623538   -1.4326992095
H       -2.1641722463    0.1734137747    0.1279384290
H       -0.8990312387    2.2499896698   -1.0175988039
C       -0.2095794365    0.0337633389    1.3033542732
H       -0.3827880851   -0.7402268669    2.0493704784
