13   
Frame   0 IRC: Energy =  -286.8569550000 ; +0.0000 kcal/mol
C        1.5791252056    0.2926202887   -0.3212753300
C        0.6383214384   -0.8741601761   -0.0514834807
C       -0.6901991429   -0.3721876257   -0.7166529371
C       -1.0453332800    0.3114421959    0.6398804315
C       -0.4442860169    1.0906140833   -0.5665324209
N        0.9712589404    1.3958592422   -0.5616369474
H        2.6590888752    0.2502177049   -0.1968520835
H        1.0170265662   -1.8840325215   -0.2076048272
H       -1.3374552282   -0.8896715450   -1.4177306634
H       -2.0117308370    0.6039638343    1.0355374753
H       -1.1044523105    1.8203631371   -1.0220751935
C       -0.0253995665   -0.5228538164    1.2894775493
H       -0.2059646436   -1.2221748016    2.0969484280
13   
Frame   1 IRC: Energy =  -286.8562714850 ; +0.4289 kcal/mol
C        1.5864004494    0.3043491611   -0.3325075514
C        0.6567209358   -0.8614151451   -0.0363692340
C       -0.6826724335   -0.3785906972   -0.6894211268
C       -1.0259093692    0.3396248869    0.6539773730
C       -0.4427296180    1.0900639066   -0.5661552364
N        0.9728236422    1.4011405510   -0.5833046078
H        2.6688074642    0.2690548089   -0.2257604105
H        1.0433855272   -1.8693480809   -0.1814504727
H       -1.3441870324   -0.9184830715   -1.3592236655
H       -1.9913538266    0.6317030902    1.0521746205
H       -1.1087011353    1.8058681550   -1.0349215080
C       -0.0162683234   -0.5137195894    1.3083592620
H       -0.3163162802   -1.3002479755    1.9946025577
13   
Frame   2 IRC: Energy =  -286.8545272906 ; +1.5234 kcal/mol
C        1.5939614683    0.3160167281   -0.3384843430
C        0.6755288504   -0.8499941953   -0.0227197736
C       -0.6735020954   -0.3826221084   -0.6620328891
C       -1.0067807710    0.3672719193    0.6672339126
C       -0.4390477125    1.0912550310   -0.5671075411
N        0.9755183214    1.4065080406   -0.6027297423
H        2.6786172718    0.2881766063   -0.2487774380
H        1.0738810294   -1.8538746658   -0.1642063490
H       -1.3588351175   -0.9548197596   -1.2792616016
H       -1.9730246864    0.6585741198    1.0621701029
H       -1.1094211417    1.7950664891   -1.0467943703
C       -0.0177566086   -0.5188563792    1.3208149039
H       -0.4191388083   -1.3627018259    1.8818951286
13   
Frame   3 IRC: Energy =  -286.8512094213 ; +3.6054 kcal/mol
C        1.6029753500    0.3279407373   -0.3403431924
C        0.6946655555   -0.8396088706   -0.0087429079
C       -0.6622059612   -0.3837586874   -0.6345114579
C       -0.9883877606    0.3944976031    0.6808737956
C       -0.4331483349    1.0942394353   -0.5661042339
N        0.9800098560    1.4121333964   -0.6185976823
H        2.6895439017    0.3057811518   -0.2740370923
H        1.1012850632   -1.8386520667   -0.1551903927
H       -1.3729783312   -0.9904429978   -1.1826204668
H       -1.9619911190    0.6789674064    1.0639884123
H       -1.1081474538    1.7836801440   -1.0603674906
C       -0.0277841236   -0.5334990324    1.3305035104
H       -0.5138366421   -1.4112782196    1.7651491987
13   
Frame   4 IRC: Energy =  -286.8459286907 ; +6.9191 kcal/mol
C        1.6133791807    0.3396667714   -0.3385419527
C        0.7132185450   -0.8288130636    0.0069759985
C       -0.6438467724   -0.3785697606   -0.6027514003
C       -0.9712561924    0.4225382244    0.6975850385
C       -0.4248882356    1.0975618867   -0.5608371166
N        0.9864502849    1.4188680188   -0.6308083833
H        2.7028553022    0.3224336601   -0.3043786191
H        1.1196589179   -1.8256642927   -0.1576697601
H       -1.3817177636   -1.0171637163   -1.0756837292
H       -1.9591353482    0.6947773903    1.0571457424
H       -1.1095438841    1.7603312238   -1.0804586840
C       -0.0451248343   -0.5554291919    1.3388575761
H       -0.6000492000   -1.4505371504    1.6505652898
13   
Frame   5 IRC: Energy =  -286.8369333368 ; +12.5638 kcal/mol
C        1.6244001798    0.3475797497   -0.3462083343
C        0.7401114613   -0.8293650576   -0.0017004529
C       -0.6141453061   -0.3745154543   -0.5681580204
C       -0.9576443998    0.5011061091    0.7460076400
C       -0.4236219764    1.0983749103   -0.5502941459
N        0.9871579686    1.4225479394   -0.6394735210
H        2.7144203891    0.3366409776   -0.3286923637
H        1.1378949300   -1.8331830986   -0.1625009003
H       -1.3649169833   -1.0251601570   -0.9816294258
H       -1.9832191602    0.7061074820    1.0482733127
H       -1.1154412614    1.7223827305   -1.1003691362
C       -0.0841780244   -0.5876274111    1.3056436764
H       -0.6608178172   -1.4848887199    1.5791016714
13   
Frame   6 IRC: Energy =  -286.8226067054 ; +21.5539 kcal/mol (Transition State)
C        1.6318438585    0.3512201644   -0.3498276113
C        0.7746016502   -0.8316740690   -0.0254073484
C       -0.5788799892   -0.4032294064   -0.5343053217
C       -0.9432842732    0.6140575350    0.8238191002
C       -0.4317546310    1.0848399158   -0.5383607802
N        0.9742699062    1.4203120947   -0.6397392963
H        2.7199395081    0.3410399252   -0.3362412087
H        1.1484237502   -1.8429393285   -0.1594725879
H       -1.3522038047   -1.0303259395   -0.9545243635
H       -2.0043753091    0.7042637035    1.0426630583
H       -1.1153950986    1.7055596120   -1.1054937419
C       -0.1490011043   -0.6148467803    1.2055266516
H       -0.6741844632   -1.4982774269    1.5713634500
13   
Frame   7 IRC: Energy =  -286.8302880012 ; +16.7338 kcal/mol
C        1.6374900106    0.3569614785   -0.3519013145
C        0.7941771826   -0.8353262126   -0.0347388535
C       -0.5512676539   -0.4550874472   -0.5298830136
C       -0.9208511398    0.7087643267    0.9148886817
C       -0.4475387756    1.0678735343   -0.5143278263
N        0.9668377567    1.4161896609   -0.6309146321
H        2.7241386670    0.3443976207   -0.3368807723
H        1.1556967225   -1.8483665635   -0.1567508871
H       -1.3471406082   -1.0402083648   -0.9597881503
H       -2.0065290717    0.7021860652    1.0410957617
H       -1.1113519527    1.6979201795   -1.1044744582
C       -0.2253387031   -0.6228245341    1.0890866373
H       -0.6683224344   -1.4924797436    1.5745888271
13   
Frame   8 IRC: Energy =  -286.8445946600 ; +7.7562 kcal/mol
C        1.6393660718    0.3583117982   -0.3511381639
C        0.8059472660   -0.8420745838   -0.0462170109
C       -0.5559156831   -0.4990801059   -0.5506798281
C       -0.8874548174    0.7682630527    0.9859710153
C       -0.4640832566    1.0506244783   -0.4790018598
N        0.9571176540    1.4129688860   -0.6097330898
H        2.7276265381    0.3531030701   -0.3335647556
H        1.1726979456   -1.8562642346   -0.1461470539
H       -1.3398796679   -1.0740960929   -1.0110576540
H       -1.9822065312    0.7260555518    1.0695606024
H       -1.1042175340    1.6860823933   -1.0902898560
C       -0.3150592495   -0.6194096138    0.9852438550
H       -0.6539387357   -1.4644845992    1.5770537993
13   
Frame   9 IRC: Energy =  -286.8508911890 ; +3.8051 kcal/mol
C        1.6275394544    0.3558888947   -0.3475357652
C        0.7972863974   -0.8506818351   -0.0620599045
C       -0.5716651190   -0.5254325966   -0.5804645825
C       -0.8612751765    0.7725016093    0.9974882885
C       -0.4767088582    1.0377516969   -0.4740699889
N        0.9431478549    1.4095627135   -0.5958468363
H        2.7166205753    0.3658987094   -0.3247685222
H        1.1907023255   -1.8589481577   -0.1231003422
H       -1.2998576537   -1.1187425719   -1.1154134565
H       -1.9422934970    0.8077815441    1.1618455177
H       -1.1160409467    1.6828140411   -1.0717273619
C       -0.3552700801   -0.6298389223    0.9469692827
H       -0.6521852764   -1.4485551255    1.5886836712
13   
Frame  10 IRC: Energy =  -286.8546831642 ; +1.4256 kcal/mol
C        1.6142668813    0.3574196982   -0.3433435888
C        0.7889820440   -0.8535657526   -0.0643506844
C       -0.5737065961   -0.5442293827   -0.6031427188
C       -0.8430452310    0.7678747357    0.9986783630
C       -0.4926357190    1.0226607441   -0.4803306068
N        0.9270158601    1.4060737845   -0.6048149068
H        2.7026531781    0.3761896509   -0.3072740908
H        1.1953341439   -1.8589797646   -0.1094753526
H       -1.2389553835   -1.1498478944   -1.2088386357
H       -1.8906256598    0.9013101291    1.2712282388
H       -1.1417680420    1.6716656672   -1.0643287090
C       -0.3848180242   -0.6428492075    0.9259648371
H       -0.6626974518   -1.4537224079    1.5900278548
13   
Frame  11 IRC: Energy =  -286.8567212142 ; +0.1467 kcal/mol
C        1.6016983529    0.3619050277   -0.3371772267
C        0.7839798176   -0.8558154116   -0.0648452843
C       -0.5723566413   -0.5614616043   -0.6246857512
C       -0.8309528893    0.7606782233    0.9957397054
C       -0.5092380002    1.0067743986   -0.4889606858
N        0.9101403317    1.4043575122   -0.6141354386
H        2.6888998000    0.3914239498   -0.2847545291
H        1.1991923282   -1.8579192200   -0.1008780728
H       -1.1823159465   -1.1747895249   -1.2792909629
H       -1.8184005071    0.9988275129    1.3818691616
H       -1.1703103185    1.6494370441   -1.0669660273
C       -0.4143629829   -0.6569582855    0.9077637587
H       -0.6859733447   -1.4664596222    1.5763213531
13   
Frame  12 IRC: Energy =  -286.8575440000 ; -0.3696 kcal/mol
C        1.5897937615    0.3683722827   -0.3283858501
C        0.7814750451   -0.8585019123   -0.0679401832
C       -0.5686651735   -0.5784945367   -0.6452099477
C       -0.8298553969    0.7491988158    0.9851584379
C       -0.5261538031    0.9907554398   -0.4998359593
N        0.8925294941    1.4046700634   -0.6172885341
H        2.6751121435    0.4117311705   -0.2550868103
H        1.2082632314   -1.8560379390   -0.0948695380
H       -1.1440276044   -1.1971761697   -1.3265528657
H       -1.7252779827    1.0964010865    1.4882723361
H       -1.1952276977    1.6241695573   -1.0797497621
C       -0.4433117587   -0.6710972149    0.8884329758
H       -0.7146542587   -1.4839906434    1.5530557009
