13   
Frame   0 IRC: Energy =  -286.8734670000 ; +0.0000 kcal/mol
C        1.5220644764    0.3458674627   -0.2659712780
C        0.6261616804   -0.8923488114   -0.0628850116
C       -0.3976347031   -0.5227046610   -1.1413023795
C       -1.0009161738    0.5126632266    0.8106095797
C       -0.5872680970    0.8966071085   -0.6198986006
N        0.8501497357    1.3862781438   -0.5796611249
H        2.6024981005    0.3634926294   -0.1406525372
H        1.1087402191   -1.8690053058   -0.0747627544
H       -1.2181857219   -1.1794632011   -1.4229654464
H       -1.7239916303    1.0481435509    1.4148404578
H       -1.2349965784    1.5908292639   -1.1511280598
C       -0.2716181759   -0.5662072313    1.1492455630
H       -0.2750031321   -1.1141521746    2.0845315917
13   
Frame   1 IRC: Energy =  -286.8716313124 ; +1.1519 kcal/mol
C        1.5231412328    0.3630410961   -0.2733791870
C        0.6381193244   -0.8837319798   -0.0525777031
C       -0.3913165796   -0.5342862611   -1.1300504936
C       -0.9812130128    0.5347920745    0.8219899368
C       -0.5844016587    0.8960392628   -0.6194683727
N        0.8451959122    1.3938537670   -0.6029645876
H        2.6057566159    0.3949584521   -0.1688503004
H        1.1388990601   -1.8507059089   -0.0469838433
H       -1.2047082052   -1.2104572333   -1.3831894509
H       -1.6556827423    1.1060705617    1.4484006419
H       -1.2502874857    1.5723885977   -1.1519074088
C       -0.2887446582   -0.5754328403    1.1417160374
H       -0.3947578029   -1.2065295885    2.0172647313
13   
Frame   2 IRC: Energy =  -286.8665050710 ; +4.3687 kcal/mol
C        1.5241008326    0.3731985246   -0.2862133162
C        0.6466518321   -0.8729541456   -0.0402235202
C       -0.3979568584   -0.5498573786   -1.1036068631
C       -0.9558718289    0.5704416802    0.8505888781
C       -0.5852368481    0.8955575568   -0.6136451912
N        0.8385293984    1.3950074365   -0.6322450076
H        2.6063534076    0.4245835142   -0.1819517080
H        1.1595171735   -1.8336511703   -0.0197276384
H       -1.1823248285   -1.2550547873   -1.3786732036
H       -1.6015628683    1.1612548517    1.4970316730
H       -1.2592316017    1.5520793655   -1.1596673968
C       -0.2942386498   -0.5670534805    1.1454118009
H       -0.4987291605   -1.2935519671    1.9229214933
13   
Frame   3 IRC: Energy =  -286.8546773108 ; +11.7907 kcal/mol
C        1.5367025393    0.3782302302   -0.2988816101
C        0.6823678548   -0.8656199487   -0.0320485150
C       -0.4545500331   -0.5792394248   -0.9869330433
C       -0.9474053524    0.6166229847    0.8715590801
C       -0.5878213720    0.9021922041   -0.5993125899
N        0.8356661835    1.3898829817   -0.6460113963
H        2.6187447854    0.4444403140   -0.1785088431
H        1.1832165937   -1.8359902666   -0.0168998267
H       -1.1605934929   -1.2862024468   -1.3988633382
H       -1.5859950922    1.1988578573    1.5321699127
H       -1.2567683012    1.5392842615   -1.1750779448
C       -0.3209476398   -0.5706631822    1.0986777206
H       -0.5426166731   -1.3317955644    1.8301303940
13   
Frame   4 IRC: Energy =  -286.8444141988 ; +18.2309 kcal/mol (Transition State)
C        1.5480547708    0.3809211227   -0.3081934550
C        0.7327459796   -0.8578547789   -0.0411818019
C       -0.5073210932   -0.6147799813   -0.8365559360
C       -0.9446213323    0.6669699434    0.8707222791
C       -0.5896464697    0.9132799628   -0.5894655859
N        0.8318536671    1.3884414621   -0.6482055418
H        2.6251609504    0.4529294658   -0.1747557584
H        1.1956616266   -1.8407031040   -0.0185054689
H       -1.1364154351   -1.2895770498   -1.4010740624
H       -1.5832498355    1.2177446287    1.5449179143
H       -1.2558917607    1.5342386577   -1.1852297793
C       -0.3605065548   -0.6073195847    1.0059149824
H       -0.5558245131   -1.3442907444    1.7816122139
13   
Frame   5 IRC: Energy =  -286.8536496651 ; +12.4356 kcal/mol
C        1.5561375567    0.3855266405   -0.3206176840
C        0.7762107200   -0.8536619510   -0.0574904976
C       -0.5502918516   -0.6476809437   -0.6950974950
C       -0.9264603002    0.7139686320    0.8791167247
C       -0.5882096144    0.9222626919   -0.5815953555
N        0.8284216207    1.3909848535   -0.6501317197
H        2.6310516932    0.4635095912   -0.1750636810
H        1.2125950912   -1.8454692267   -0.0204596733
H       -1.1070419332   -1.2883843347   -1.3783039941
H       -1.5831065947    1.2361541379    1.5541833166
H       -1.2538866677    1.5264473065   -1.1970525340
C       -0.4228931232   -0.6446445608    0.9175079329
H       -0.5725265970   -1.3590128366    1.7250046600
13   
Frame   6 IRC: Energy =  -286.8575915182 ; +9.9620 kcal/mol
C        1.5606748022    0.3939134679   -0.3316596242
C        0.7928067353   -0.8494464021   -0.0488299340
C       -0.5548627443   -0.6496899381   -0.6451602161
C       -0.8927815505    0.7436650499    0.9109397144
C       -0.5801836685    0.9257171117   -0.5711110533
N        0.8290763664    1.3943853117   -0.6695894825
H        2.6368251223    0.4859998402   -0.2034216447
H        1.2479816970   -1.8360547334   -0.0148811966
H       -1.0930745511   -1.3136271131   -1.3155808826
H       -1.5698306697    1.2734875911    1.5634951518
H       -1.2542122349    1.5058741845   -1.2028316294
C       -0.4619468724   -0.6484442131    0.9009760230
H       -0.6604724317   -1.4257801573    1.6276547742
13   
Frame   7 IRC: Energy =  -286.8585667875 ; +9.3500 kcal/mol
C        1.5545021120    0.4041313352   -0.3242699386
C        0.8019675477   -0.8461641675   -0.0407699170
C       -0.5429983352   -0.6596661115   -0.6494844319
C       -0.9380851253    0.7249113264    0.8943141012
C       -0.5898437827    0.9188349075   -0.5731691392
N        0.8156726602    1.3987220516   -0.6635161983
H        2.6341731594    0.5037315940   -0.2209584497
H        1.2721139012   -1.8229805086    0.0088978670
H       -1.0762724537   -1.3310465615   -1.3140256892
H       -1.4596438728    1.3363600787    1.6168651735
H       -1.2624957872    1.4925575092   -1.2095838366
C       -0.4905079715   -0.6625514549    0.8872176259
H       -0.7185820521   -1.4568399987    1.5884828329
13   
Frame   8 IRC: Energy =  -286.8598280582 ; +8.5586 kcal/mol
C        1.5378128064    0.4161815474   -0.3056460956
C        0.7970222369   -0.8440746672   -0.0426558538
C       -0.5432997682   -0.6719712236   -0.6618394636
C       -0.9855414862    0.7052837228    0.8773462046
C       -0.6092084771    0.9051767902   -0.5833651328
N        0.7902772546    1.4040701967   -0.6470075564
H        2.6143216516    0.5279084777   -0.1876479349
H        1.2773791191   -1.8155354671    0.0182862855
H       -1.0589518460   -1.3469454569   -1.3366203352
H       -1.2876669775    1.3942945193    1.6576388718
H       -1.2761754151    1.4732323633   -1.2320853578
C       -0.5199460666   -0.6741702504    0.8717385372
H       -0.7360230320   -1.4734505521    1.5718578310
13   
Frame   9 IRC: Energy =  -286.8602923117 ; +8.2672 kcal/mol
C        1.5190299831    0.4270218315   -0.2889712789
C        0.7871657630   -0.8420399531   -0.0389963741
C       -0.5501855471   -0.6812296370   -0.6711893465
C       -0.9947374516    0.7016981034    0.8736733780
C       -0.6262907284    0.8940498213   -0.5924460919
N        0.7673551329    1.4075040609   -0.6435108482
H        2.5910847495    0.5531044192   -0.1490305526
H        1.2774088207   -1.8078752857    0.0279423272
H       -1.0405956620   -1.3607055215   -1.3606818287
H       -1.1258619534    1.4257642695    1.6725007342
H       -1.2983620680    1.4545586885   -1.2428578089
C       -0.5440968602   -0.6853043127    0.8579920153
H       -0.7619141785   -1.4865464843    1.5555756750
