13   
From qcopt_rct.out: Frame 3 / 3, Energy=    -286.8516365108
C        1.5196817895    0.3440739078   -0.2649461972
C        0.6224748319   -0.8939218341   -0.0647136388
C       -0.3953703744   -0.5206731519   -1.1472882853
C       -1.0023286462    0.5091940545    0.8086810719
C       -0.5861713701    0.8954094682   -0.6198733192
N        0.8530895815    1.3865087220   -0.5766345126
H        2.6004622616    0.3578332345   -0.1344527725
H        1.1022922546   -1.8726626952   -0.0767669264
H       -1.2213134024   -1.1742516431   -1.4232003148
H       -1.7271370039    1.0439991456    1.4125314193
H       -1.2321738086    1.5929355166   -1.1508801546
C       -0.2722119407   -0.5659090966    1.1475628476
H       -0.2612941731   -1.1025356283    2.0899807822
13   
From qcopt_prd.out: Frame 2 / 2, Energy=    -286.8364797628
C        1.5752232761    0.3862015484   -0.3519328588
C        0.7979074500   -0.8454910326   -0.0269989389
C       -0.5582847917   -0.6278443232   -0.6149038824
C       -0.8369160272    0.7823840404    0.9479916968
C       -0.5514564849    0.9466617470   -0.5501150078
N        0.8572729289    1.3903281001   -0.6922240316
H        2.6597371001    0.4591219410   -0.2779753897
H        1.2479093777   -1.8332529072   -0.0005100662
H       -1.1140808412   -1.2927537139   -1.2698257331
H       -1.7130670795    1.1632599089    1.4603718003
H       -1.2383617506    1.5310555612   -1.1619888561
C       -0.4362711353   -0.6374050982    0.9165334039
H       -0.6896120224   -1.4222657720    1.6215778637
