13   
From qcts2.out: Frame 4 / 4, Energy=    -286.8438158204
C        1.5457992283    0.3774224907   -0.3086425081
C        0.7249138119   -0.8603742445   -0.0388726522
C       -0.5045775321   -0.6125758033   -0.8533084980
C       -0.9460110504    0.6627811287    0.8696319591
C       -0.5902378376    0.9107932180   -0.5922754108
N        0.8320473775    1.3855477849   -0.6511709590
H        2.6234328709    0.4480084360   -0.1770437603
H        1.1908190780   -1.8424687306   -0.0163016944
H       -1.1425522131   -1.2915475993   -1.4001203484
H       -1.5831698292    1.2191190555    1.5416950899
H       -1.2561626157    1.5333337904   -1.1868344908
C       -0.3571729096   -0.6014339320    1.0171971211
H       -0.5571442820   -1.3405819753    1.7883103155
