13   
Frame   0 IRC: Energy =  -286.8970570000 ; +0.0000 kcal/mol
C        1.7735676198    0.1350505132    0.0878038119
C        1.0421577649   -0.8386349613   -0.6136452867
C       -0.3618803047   -0.3521262617   -0.7605280900
C       -1.3468850307   -0.7167652232    0.3648938411
C       -0.2674630749    1.0472879030   -0.0317410982
N        1.0985956682    1.2244069860    0.4464801005
H        2.8210631307    0.0390106201    0.3661366373
H        1.4276701454   -1.7932011312   -0.9537925776
H       -0.7610042541   -0.3949112979   -1.7819458922
H       -1.8996588884   -1.6310841757    0.5624265836
H       -0.6132879394    1.9347590990   -0.5743587520
C       -1.2483240624    0.4648441727    0.9884336031
H       -1.6645507746    0.8813637573    1.8998371188
13   
Frame   1 IRC: Energy =  -286.8964968606 ; +0.3515 kcal/mol
C        1.7827152084    0.1510802274    0.0641247525
C        1.0347542267   -0.8440954285   -0.5871678029
C       -0.3610121931   -0.3415224025   -0.7655684724
C       -1.3573050900   -0.7166617022    0.3390814942
C       -0.2634459158    1.0500235064   -0.0252635852
N        1.1134841400    1.2482224772    0.4105029523
H        2.8389948217    0.0670403154    0.3111002175
H        1.3868989322   -1.8410255399   -0.8281167001
H       -0.7310680838   -0.3670156236   -1.7991111433
H       -1.9285880513   -1.6253283132    0.5050726890
H       -0.6411555185    1.9375386899   -0.5456615328
C       -1.2331710530    0.4446288089    0.9974604638
H       -1.6411014233    0.8371149847    1.9235466675
13   
Frame   2 IRC: Energy =  -286.8945710565 ; +1.5600 kcal/mol
C        1.7965698422    0.1601286907    0.0359769882
C        1.0250452807   -0.8491896936   -0.5618848005
C       -0.3558420175   -0.3229107176   -0.7635131859
C       -1.3497235517   -0.7142962716    0.3242840411
C       -0.2537930378    1.0642613996   -0.0176714124
N        1.1424414758    1.2742499433    0.3619327390
H        2.8587992726    0.0678459428    0.2549730560
H        1.3284302523   -1.8786856230   -0.7161222895
H       -0.7108384902   -0.3383427191   -1.8017333902
H       -1.9135786542   -1.6301389471    0.4667573674
H       -0.6533119790    1.9541773008   -0.5181387928
C       -1.2276730511    0.4317889305    1.0070871146
H       -1.6865253422    0.7811117644    1.9280525651
13   
Frame   3 IRC: Energy =  -286.8888515494 ; +5.1490 kcal/mol
C        1.8137693947    0.1572413267    0.0082057081
C        1.0162127282   -0.8587330622   -0.5297951641
C       -0.3521225733   -0.3032805527   -0.7449278515
C       -1.3409278519   -0.6943975072    0.3269289384
C       -0.2403499547    1.0934404208   -0.0212500526
N        1.1852383367    1.3097924040    0.2682713554
H        2.8715166734    0.0395127250    0.2467663155
H        1.2972156661   -1.8968703911   -0.6769196469
H       -0.6984861446   -0.3409619022   -1.7835338957
H       -1.8818756930   -1.6255915561    0.4330175155
H       -0.6547805824    1.9827192168   -0.5157346714
C       -1.2392931895    0.4387954532    1.0345877589
H       -1.7761168100    0.6983334251    1.9543836907
13   
Frame   4 IRC: Energy =  -286.8754478724 ; +13.5599 kcal/mol
C        1.8303575642    0.1428155129   -0.0072180416
C        1.0190135302   -0.8675387566   -0.5160740147
C       -0.3449983575   -0.2885733064   -0.7346559463
C       -1.3399514738   -0.6738570227    0.3321698326
C       -0.1881712733    1.1229344681   -0.0818114982
N        1.2194521031    1.3276154169    0.1844834829
H        2.8797276883    0.0217817960    0.2594966763
H        1.2901695861   -1.9073815094   -0.6666413325
H       -0.6923435397   -0.3494987782   -1.7724136013
H       -1.8571642741   -1.6244881038    0.4094024216
H       -0.6613193276    2.0132129077   -0.5145326574
C       -1.2942048244    0.4293863572    1.0856018884
H       -1.8605674014    0.6535910184    2.0221927903
13   
Frame   5 IRC: Energy =  -286.8569261131 ; +25.1825 kcal/mol
C        1.8381347804    0.1211602488   -0.0137838727
C        1.0263272227   -0.8712022979   -0.5083607600
C       -0.3335406378   -0.2735837099   -0.7286326412
C       -1.3380431506   -0.6583464479    0.3366984165
C       -0.0978728612    1.1550096258   -0.1878664382
N        1.2221405197    1.3404267607    0.1390159038
H        2.8822175183    0.0139697055    0.2661775849
H        1.2872052628   -1.9113428814   -0.6629942588
H       -0.6902592657   -0.3520936439   -1.7638814354
H       -1.8420007268   -1.6208075799    0.3991190018
H       -0.6712438539    2.0251483244   -0.4979826742
C       -1.3721924677    0.3935863267    1.1469880529
H       -1.9108723401    0.6380755689    2.0755031207
13   
Frame   6 IRC: Energy =  -286.8529576337 ; +27.6728 kcal/mol (Transition State)
C        1.8462200153    0.0968963784   -0.0183707273
C        1.0348699759   -0.8737572272   -0.5005781443
C       -0.3202118676   -0.2550582154   -0.7241100272
C       -1.3354497477   -0.6376776790    0.3437625725
C       -0.0121102725    1.1862834270   -0.3009849082
N        1.2181931103    1.3555443117    0.1014652268
H        2.8861946240    0.0078162698    0.2706110524
H        1.2843632459   -1.9145282410   -0.6606497617
H       -0.6902864141   -0.3549406439   -1.7553830537
H       -1.8275639471   -1.6137131551    0.3894398353
H       -0.6771215181    2.0267411202   -0.4763724675
C       -1.4546938184    0.3501996879    1.2085142008
H       -1.9524033859    0.6261939665    2.1226562020
13   
Frame   7 IRC: Energy =  -286.8578537409 ; +24.6004 kcal/mol
C        1.8615801076    0.0874684385   -0.0284367205
C        1.0379478336   -0.8762330905   -0.4894866883
C       -0.3083088024   -0.2327774561   -0.7218054703
C       -1.3340397622   -0.6082002023    0.3546900696
C        0.0409642782    1.2107173707   -0.3903651741
N        1.2459467000    1.3695021513    0.0437794795
H        2.8962270003   -0.0029218543    0.2764359610
H        1.2762479119   -1.9196714071   -0.6518430807
H       -0.6931730872   -0.3684705474   -1.7436036336
H       -1.8027956433   -1.5992684929    0.3654555617
H       -0.6680537398    2.0301128953   -0.4666853149
C       -1.5332629859    0.3160632964    1.2679692381
H       -2.0192798109    0.5936788986    2.1838957724
13   
Frame   8 IRC: Energy =  -286.8615626073 ; +22.2731 kcal/mol
C        1.8818709690    0.0875317969   -0.0523431906
C        1.0365865917   -0.8740894522   -0.4746248289
C       -0.3018927316   -0.2115901207   -0.7067421492
C       -1.3322629207   -0.5804699265    0.3689550497
C        0.0747047099    1.2311745837   -0.4325368218
N        1.2875768049    1.3840866725   -0.0210760311
H        2.9118966690   -0.0145107816    0.2650291112
H        1.2549329688   -1.9238000503   -0.6206817453
H       -0.6990620750   -0.3799946520   -1.7195534979
H       -1.7796309236   -1.5811156786    0.3395908290
H       -0.6350065719    2.0510253705   -0.4841458395
C       -1.5879474959    0.2996642391    1.3113065685
H       -2.1117659945    0.5120879992    2.2268225460
13   
Frame   9 IRC: Energy =  -286.8643009401 ; +20.5548 kcal/mol
C        1.9020093933    0.0886750507   -0.0783007529
C        1.0339616741   -0.8696451838   -0.4559894949
C       -0.2981142780   -0.1916489003   -0.6842294812
C       -1.3323808457   -0.5617211731    0.3811623593
C        0.1036853985    1.2497624403   -0.4521645040
N        1.3270290681    1.3960638278   -0.0753278490
H        2.9349719261   -0.0211945104    0.2274955105
H        1.2281632814   -1.9279384350   -0.5698642387
H       -0.7003435953   -0.3720277153   -1.6939900582
H       -1.7698417452   -1.5665825942    0.3301575126
H       -0.5929740271    2.0813920395   -0.5128140989
C       -1.6294877222    0.2858532045    1.3410503529
H       -2.2066785280    0.4090119493    2.2428147424
13   
Frame  10 IRC: Energy =  -286.8662445309 ; +19.3351 kcal/mol
C        1.9226931628    0.0907287711   -0.1059512431
C        1.0308407503   -0.8643483206   -0.4333530450
C       -0.2940908715   -0.1724206246   -0.6580184001
C       -1.3385771768   -0.5498586784    0.3925761135
C        0.1299985505    1.2673936813   -0.4609208636
N        1.3668601992    1.4055458310   -0.1282353666
H        2.9621895949   -0.0274254683    0.1743414492
H        1.2019617460   -1.9310134736   -0.5108271651
H       -0.6937770978   -0.3545775629   -1.6678326732
H       -1.7638905762   -1.5567497715    0.3217878311
H       -0.5513703322    2.1104225794   -0.5360505125
C       -1.6762207660    0.2677065024    1.3654421237
H       -2.2966171833    0.3145965348    2.2470417518
13   
Frame  11 IRC: Energy =  -286.8675212515 ; +18.5340 kcal/mol
C        1.9438522446    0.0905707925   -0.1364639454
C        1.0297531223   -0.8596067907   -0.4089647632
C       -0.2901807452   -0.1546474639   -0.6259873981
C       -1.3468400328   -0.5410325704    0.4032788008
C        0.1540628065    1.2826207006   -0.4630310660
N        1.4036504694    1.4123196510   -0.1773957332
H        2.9905126657   -0.0339333245    0.1118077396
H        1.1802189138   -1.9306924985   -0.4518354214
H       -0.6823688717   -0.3349404476   -1.6403989723
H       -1.7615073976   -1.5521244260    0.3107088536
H       -0.5140252061    2.1353728884   -0.5472854341
C       -1.7254363825    0.2478541914    1.3838316628
H       -2.3816915863    0.2382392977    2.2417356768
13   
Frame  12 IRC: Energy =  -286.8683153852 ; +18.0357 kcal/mol
C        1.9673791290    0.0892948445   -0.1717396942
C        1.0318403234   -0.8552907580   -0.3827020807
C       -0.2838542824   -0.1383690657   -0.5872981709
C       -1.3577727552   -0.5345029259    0.4155724072
C        0.1788567825    1.2959511607   -0.4559642639
N        1.4411545110    1.4164741965   -0.2263191916
H        3.0224480548   -0.0422592488    0.0335675336
H        1.1644335026   -1.9292995814   -0.3942243424
H       -0.6657812466   -0.3139403570   -1.6077256433
H       -1.7612552102   -1.5482491593    0.2992104271
H       -0.4780467710    2.1570911268   -0.5434713985
C       -1.7828856406    0.2293738517    1.3969246586
H       -2.4765163974    0.1737259158    2.2241697591
13   
Frame  13 IRC: Energy =  -286.8686115553 ; +17.8498 kcal/mol
C        1.9913821059    0.0835436500   -0.2090866904
C        1.0389419876   -0.8547735058   -0.3612260265
C       -0.2743131342   -0.1282275124   -0.5499544990
C       -1.3636498486   -0.5334701925    0.4299769853
C        0.2011251394    1.3025979691   -0.4279045404
N        1.4732979652    1.4151830147   -0.2559948301
H        3.0542864152   -0.0538336424   -0.0554896943
H        1.1610779820   -1.9298583149   -0.3612578853
H       -0.6496265668   -0.2954885234   -1.5747666117
H       -1.7514538763   -1.5521149618    0.3034424203
H       -0.4496546974    2.1695273425   -0.5020652892
C       -1.8489695246    0.2261755381    1.3867760614
H       -2.5824439474    0.1507391388    2.1775505997
13   
Frame  14 IRC: Energy =  -286.8687476740 ; +17.7644 kcal/mol
C        2.0062347227    0.0728435582   -0.2298844129
C        1.0429644008   -0.8580739509   -0.3651711056
C       -0.2666404067   -0.1201373318   -0.5202776795
C       -1.3637578193   -0.5315002553    0.4461408463
C        0.2209715968    1.3063105951   -0.4030182228
N        1.4982530840    1.4069750243   -0.2592850674
H        3.0722577656   -0.0749282087   -0.1081338999
H        1.1574841112   -1.9342995297   -0.3750851034
H       -0.6435339301   -0.2688891834   -1.5486831928
H       -1.6942803487   -1.5740944543    0.3540714691
H       -0.4238931940    2.1791335456   -0.4555685640
C       -1.9214570523    0.2407012347    1.3514957612
H       -2.6846029299    0.1559589563    2.1133991717
