13   
From optimize.out: Frame 1 / 2, Energy=    -286.8443305168
C        1.9550360137    0.1928947525   -0.1344681595
C        1.0113083663   -0.7634496771   -0.1507273844
C       -0.2837932846   -0.1068774306   -0.5495581619
C       -1.4592563888   -0.2721557326    0.3974660946
C        0.1899544141    1.3297561197   -0.6897261477
N        1.4476920322    1.4867967524   -0.4665456831
H        3.0100924452    0.0950203296    0.0938797715
H        1.1279191010   -1.8178094690    0.0637903912
H       -0.5960005457   -0.4560802321   -1.5505976366
H       -2.3901635089    0.2089891225    0.0693009476
H       -0.4552305139    2.1626186879   -0.9620058957
C       -1.4300916846   -0.9149317227    1.5418322029
H       -2.1274664460   -1.1447715005    2.3373596610
