13   
From qcopt_rct.out: Frame 2 / 2, Energy=    -286.8568466570
C        1.5870922044    0.3115604780    0.1270621950
C        1.0216973181   -0.9083644076    0.2852620208
C       -0.4326742381   -1.0946927352    0.1723535709
C       -1.2406018929    0.2900485956    0.0321669176
C       -0.4008943868    1.4972131700    0.1614605217
N        0.8875884347    1.5238814995    0.1177335498
H        2.6680929546    0.4249158790    0.1305924177
H        1.6435308272   -1.7753129695    0.4939677920
H       -0.9030216505   -1.8894934151    0.7522987312
H       -2.2267824469    0.3360892166    0.4975376360
H       -0.9119774583    2.4428661887    0.3566098668
C       -1.0662001840   -0.6536052872   -1.0736765122
H       -0.6258494821   -0.5051062126   -2.0533687076
13   
From qcopt_prd.out: Frame 2 / 2, Energy=    -286.9243504555
C        1.5953155399    0.3477177744    0.4385640738
C        1.2097611218   -0.9556693593    0.1859892014
C       -0.0919509541   -1.4409605565   -0.1954368236
C       -1.3483283966    0.7293698451   -0.2472354693
C       -0.3743724103    1.6451857143    0.1025696435
N        0.9378287808    1.5303270686    0.4157697933
H        2.6451874619    0.4694992919    0.7143865431
H        1.9900469680   -1.7057416924    0.2903215288
H       -0.1720895309   -2.5159998589   -0.3441110629
H       -2.3346214983    1.1434292631   -0.4425944503
H       -0.7135511924    2.6826988434    0.1409379077
C       -1.2193138396   -0.6989513609   -0.3857749139
H       -2.1239120501   -1.2309049727   -0.6733859717
