13   
From optimize.out: Frame 1 / 3, Energy=    -286.8468582439
C        1.4206594691   -0.1111226501    0.0430999976
C        0.5125533039   -1.2412255234    0.2829673926
C       -0.8321594061   -1.0781984824    0.2992591192
C       -1.4328804826    0.2445392633    0.2682569919
C       -0.6677151994    1.3502598310    0.1617924433
N        0.7284122085    1.2820861042   -0.0707216219
H        2.3702496320   -0.0901115583    0.5777231546
H        0.9586188109   -2.2134949401    0.4786334827
H       -1.4805376061   -1.9368087354    0.4515621458
H       -2.4984961290    0.3475530430    0.4528437568
H       -1.0521661882    2.3543207404    0.3171148700
C        1.2798470769    0.6801194113   -1.1921647583
H        0.6936145100    0.4120834964   -2.0703669742
13   
From optimize.out: Frame 2 / 3, Energy=    -286.8468603422
C        1.4201121901   -0.1104524415    0.0436627834
C        0.5129839950   -1.2405821614    0.2839394426
C       -0.8316684075   -1.0779408357    0.2984682812
C       -1.4326256344    0.2448479739    0.2683551051
C       -0.6675432855    1.3505596566    0.1623460279
N        0.7280013529    1.2822917363   -0.0719476314
H        2.3692287291   -0.0896338204    0.5788700703
H        0.9587919265   -2.2132077421    0.4784217176
H       -1.4800249666   -1.9368967444    0.4490929680
H       -2.4981261325    0.3477159288    0.4537852052
H       -1.0516195753    2.3545965243    0.3185864223
C        1.2791148460    0.6789458124   -1.1926613321
H        0.6933749622    0.4097561131   -2.0709190601
