13   
From optimize.out: Frame 1 / 21, Energy=    -286.6753260616
C        1.6762327771    0.3118488429   -2.0498985554
C        0.9809087917   -0.9649021283   -1.7960368139
C       -0.6093837569   -0.9729785490   -2.1421837263
C       -1.3571024570    0.4154489935   -0.5399014525
C       -0.7167289281    0.7572674339   -1.9459244525
N        0.9103578192    1.3429536066   -2.4054869361
H        2.6187789141    0.7869825202   -1.7230626299
H        1.5414952881   -1.8662665129   -1.4633349221
H       -0.8875984786   -1.8673350253   -2.7224592729
H       -2.4157052151    0.5873865979   -0.3837802757
H       -1.3136397880    1.3715558277   -2.7252964269
C       -0.9132013928   -0.9298521704   -0.7905408777
H       -1.3062379895   -1.8160286993   -0.5293913518
13   
From optimize.out: Frame 2 / 21, Energy=    -286.7235159808
C        1.6317707372    0.3123350313   -2.0249901842
C        0.9718512148   -0.9601777519   -1.8037835423
C       -0.5774014161   -0.9506172496   -2.1615313511
C       -1.3212781808    0.4130837223   -0.5768502710
C       -0.7199591010    0.7505537704   -1.9863060634
N        0.8579318997    1.3360449093   -2.3796709071
H        2.5860454831    0.7459100452   -1.6879004606
H        1.5215621622   -1.8633368091   -1.4879209484
H       -0.8584344886   -1.8210258811   -2.7677281248
H       -2.3713623992    0.6023310973   -0.3825791358
H       -1.3158210106    1.3501673728   -2.7440785958
C       -0.8984382169   -0.9326100969   -0.7779823251
H       -1.2982910996   -1.8265774226   -0.4359757842
13   
From optimize.out: Frame 3 / 21, Energy=    -286.7601272681
C        1.5887639917    0.3132648186   -1.9981819990
C        0.9649442499   -0.9568919734   -1.8113498332
C       -0.5457448760   -0.9297274745   -2.1742209240
C       -1.2871724783    0.4118164396   -0.6116974882
C       -0.7174306125    0.7344810536   -2.0225561081
N        0.7928829288    1.3201781793   -2.3447615215
H        2.5527815015    0.7081860239   -1.6536012810
H        1.5066420021   -1.8629211937   -1.5145777203
H       -0.8373432218   -1.7741885688   -2.8067966193
H       -2.3266215701    0.6199775478   -0.3799532132
H       -1.3169680289    1.3181673570   -2.7617252202
C       -0.8838908114   -0.9290881884   -0.7698923855
H       -1.2826674908   -1.8171732836   -0.3679833802
13   
From optimize.out: Frame 4 / 21, Energy=    -286.7872332883
C        1.5572968453    0.3200246067   -1.9713644138
C        0.9678125511   -0.9574349879   -1.8207049169
C       -0.5180597258   -0.9174463505   -2.1831183642
C       -1.2623025873    0.4093623070   -0.6420125076
C       -0.7096310151    0.7153810862   -2.0558519040
N        0.7319080964    1.3054211259   -2.3052164305
H        2.5301989822    0.6862040487   -1.6295361851
H        1.5066715091   -1.8662302970   -1.5451244352
H       -0.8245838258   -1.7348108951   -2.8412980118
H       -2.2862556908    0.6461407376   -0.3703418103
H       -1.3177196683    1.2867425854   -2.7816196237
C       -0.8843089254   -0.9301275882   -0.7632619885
H       -1.2828509615   -1.8071456412   -0.3078471022
13   
From optimize.out: Frame 5 / 21, Energy=    -286.8069980554
C        1.5409770161    0.3296357599   -1.9497621154
C        0.9839220508   -0.9583723708   -1.8349040431
C       -0.4920569438   -0.9135022812   -2.1854257046
C       -1.2539270747    0.4041340763   -0.6657457747
C       -0.7018392320    0.6945139296   -2.0810335153
N        0.6861351977    1.2948291457   -2.2636549759
H        2.5237298729    0.6734779183   -1.6205861282
H        1.5263310437   -1.8678562336   -1.5827831588
H       -0.8123579834   -1.7051949652   -2.8666054907
H       -2.2569689653    0.6794943244   -0.3539178004
H       -1.3217571920    1.2530867464   -2.7974087276
C       -0.9059901903   -0.9332153505   -0.7580253218
H       -1.3080220153   -1.7949499617   -0.2574449371
13   
From optimize.out: Frame 6 / 21, Energy=    -286.8226899021
C        1.5373004356    0.3389202354   -1.9367145052
C        1.0106424622   -0.9574826215   -1.8542231360
C       -0.4651690627   -0.9138371511   -2.1788729190
C       -1.2609268893    0.3953634409   -0.6823888434
C       -0.6959776936    0.6731431741   -2.0955116550
N        0.6569134807    1.2887251243   -2.2252149646
H        2.5302737289    0.6653196620   -1.6267776370
H        1.5615244138   -1.8655380206   -1.6264916428
H       -0.7958551727   -1.6827188244   -2.8799328822
H       -2.2396222450    0.7135302709   -0.3345258540
H       -1.3266296671    1.2181911767   -2.8066259521
C       -0.9458981559   -0.9365020663   -0.7526311695
H       -1.3584000507   -1.7810336628   -0.2173865328
13   
From optimize.out: Frame 7 / 21, Energy=    -286.8358041423
C        1.5396369824    0.3474728917   -1.9286997595
C        1.0409848579   -0.9559400231   -1.8750271064
C       -0.4381918229   -0.9170396362   -2.1648529821
C       -1.2768414091    0.3854551053   -0.6942836847
C       -0.6903763384    0.6521551341   -2.1013685931
N        0.6379247850    1.2869009545   -2.1884943993
H        2.5431215463    0.6611671419   -1.6446965841
H        1.6038080527   -1.8609495885   -1.6730735880
H       -0.7777153287   -1.6651941352   -2.8835290716
H       -2.2293094793    0.7483033334   -0.3166241483
H       -1.3294197807    1.1829770743   -2.8115066587
C       -0.9938619386   -0.9405675232   -0.7473592156
H       -1.4215845425   -1.7686599914   -0.1877819024
13   
From optimize.out: Frame 8 / 21, Energy=    -286.8464497014
C        1.5422920209    0.3560976515   -1.9200878845
C        1.0662890780   -0.9549129816   -1.8918106365
C       -0.4148656020   -0.9238855911   -2.1475639763
C       -1.2962381790    0.3771050236   -0.7046404552
C       -0.6846490291    0.6333999567   -2.1021241700
N        0.6256343849    1.2906743008   -2.1496752095
H        2.5565728660    0.6613365813   -1.6693361279
H        1.6430752576   -1.8555045006   -1.7155708108
H       -0.7637539125   -1.6523982824   -2.8824221801
H       -2.2177585325    0.7904130437   -0.3011054747
H       -1.3305744460    1.1463090315   -2.8174577542
C       -1.0395027134   -0.9479831110   -0.7449993458
H       -1.4783456086   -1.7645703849   -0.1705036682
13   
From optimize.out: Frame 9 / 21, Energy=    -286.8549857704
C        1.5442838712    0.3634485199   -1.9110433473
C        1.0849164250   -0.9543751710   -1.9033339684
C       -0.3968109733   -0.9316964062   -2.1301521169
C       -1.3175011591    0.3686401929   -0.7158653303
C       -0.6798808181    0.6179081999   -2.1007925450
N        0.6170806471    1.2947682762   -2.1110895703
H        2.5672528006    0.6646869889   -1.6936307190
H        1.6759372568   -1.8493816638   -1.7494785325
H       -0.7561031493   -1.6402632240   -2.8807517340
H       -2.2008086717    0.8358844391   -0.2860953953
H       -1.3305198426    1.1096404509   -2.8266742065
C       -1.0796815255   -0.9560593648   -0.7462917920
H       -1.5199892767   -1.7671205006   -0.1620984361
13   
From optimize.out: Frame 10 / 21, Energy=    -286.8617412617
C        1.5442016875    0.3692611926   -1.9016773762
C        1.0979292809   -0.9548763624   -1.9118254870
C       -0.3841597534   -0.9404819169   -2.1139353506
C       -1.3403991699    0.3606047236   -0.7286436923
C       -0.6761771448    0.6054069302   -2.0987365017
N        0.6092547331    1.2977765576   -2.0748353882
H        2.5729411995    0.6703008328   -1.7128191886
H        1.7028301674   -1.8435641750   -1.7769200142
H       -0.7525569188   -1.6293382059   -2.8799492166
H       -2.1778499695    0.8820796155   -0.2708141873
H       -1.3272955114    1.0757577727   -2.8389217312
C       -1.1147178144   -0.9633745711   -0.7504182145
H       -1.5458252019   -1.7734716563   -0.1578013451
13   
From optimize.out: Frame 11 / 21, Energy=    -286.8669639879
C        1.5433581922    0.3735220381   -1.8927790799
C        1.1062883135   -0.9553586634   -1.9168910015
C       -0.3765414215   -0.9488292749   -2.0998423541
C       -1.3654619350    0.3529034050   -0.7430889800
C       -0.6748132515    0.5960334497   -2.0970290869
N        0.6023953396    1.2992288770   -2.0424521963
H        2.5758003542    0.6761662960   -1.7270956782
H        1.7234696059   -1.8378521062   -1.7971734800
H       -0.7513566815   -1.6190055030   -2.8807646668
H       -2.1499224260    0.9245555191   -0.2534189033
H       -1.3218032489    1.0459750184   -2.8546140254
C       -1.1458526893   -0.9695623350   -0.7571506777
H       -1.5573845675   -1.7816959834   -0.1549975635
13   
From optimize.out: Frame 12 / 21, Energy=    -286.8708357541
C        1.5399499957    0.3765390044   -1.8840970179
C        1.1101554817   -0.9564411828   -1.9211880350
C       -0.3733777036   -0.9571589210   -2.0885414121
C       -1.3917647553    0.3469235440   -0.7591561439
C       -0.6747849465    0.5886846004   -2.0961139416
N        0.5946606656    1.3004628439   -2.0134414861
H        2.5740313402    0.6822338989   -1.7336726156
H        1.7377334264   -1.8334096427   -1.8132468017
H       -0.7507887293   -1.6107230044   -2.8836175128
H       -2.1172769053    0.9621825133   -0.2339188286
H       -1.3120141829    1.0201596137   -2.8738500770
C       -1.1728277932   -0.9741423421   -0.7655092456
H       -1.5555203093   -1.7892301882   -0.1509445758
13   
From optimize.out: Frame 13 / 21, Energy=    -286.8734849495
C        1.5370572825    0.3783468594   -1.8761723849
C        1.1111638340   -0.9567080117   -1.9216720484
C       -0.3734900891   -0.9634229904   -2.0809533760
C       -1.4197045055    0.3416482947   -0.7768588075
C       -0.6782824715    0.5839643769   -2.0972469683
N        0.5880697471    1.3001187823   -1.9900244079
H        2.5718786460    0.6872154053   -1.7358928295
H        1.7465421217   -1.8293476461   -1.8217071466
H       -0.7519944466   -1.6028559641   -2.8881997302
H       -2.0811405203    0.9894701257   -0.2089493984
H       -1.3011995618    0.9989608055   -2.8970213654
C       -1.1970258884   -0.9771303717   -0.7764501384
H       -1.5436985639   -1.7941789282   -0.1461490923
13   
From optimize.out: Frame 14 / 21, Energy=    -286.8749847038
C        1.5283706196    0.3795387325   -1.8671057038
C        1.1074785266   -0.9585740191   -1.9275083184
C       -0.3774559263   -0.9709315479   -2.0766389755
C       -1.4476679394    0.3392346872   -0.7961978499
C       -0.6806436123    0.5790350508   -2.0993913870
N        0.5774133938    1.3018293091   -1.9655337550
H        2.5620064567    0.6923087687   -1.7257500922
H        1.7490836930   -1.8279020131   -1.8345649912
H       -0.7510839674   -1.5996709784   -2.8954885809
H       -2.0417594595    1.0127997497   -0.1858473058
H       -1.2822570322    0.9803393590   -2.9233536017
C       -1.2152416920   -0.9784593483   -0.7858006086
H       -1.5200674765   -1.7934670127   -0.1341165237
13   
From optimize.out: Frame 15 / 21, Energy=    -286.8752931953
C        1.5295697904    0.3797602905   -1.8607987573
C        1.1067702673   -0.9562296047   -1.9152869998
C       -0.3793880647   -0.9706297188   -2.0787372326
C       -1.4738854838    0.3359403544   -0.8153044261
C       -0.6926982250    0.5799142470   -2.1075389395
N        0.5748905549    1.2974494456   -1.9594730419
H        2.5634079021    0.6952248609   -1.7246708245
H        1.7506916107   -1.8243618154   -1.8241178390
H       -0.7596118715   -1.5941443293   -2.8992887381
H       -2.0021421176    1.0079188782   -0.1459391215
H       -1.2749601501    0.9714704648   -2.9520170910
C       -1.2330832377   -0.9775716909   -0.8022138544
H       -1.5013853908   -1.7886606449   -0.1319108280
13   
From optimize.out: Frame 17 / 21, Energy=    -286.8753167630
C        1.5184303337    0.3792510758   -1.8587141236
C        1.1000331003   -0.9600474792   -1.9321149285
C       -0.3842169538   -0.9738632796   -2.0794487849
C       -1.4701145683    0.3427036544   -0.8173653814
C       -0.6849829069    0.5768608116   -2.1093033745
N        0.5669018696    1.3034863673   -1.9509874681
H        2.5498681843    0.6940957169   -1.7062452731
H        1.7426094051   -1.8291791003   -1.8415366615
H       -0.7490262018   -1.6009615709   -2.9037063794
H       -2.0071327434    1.0110909908   -0.1510799116
H       -1.2604854307    0.9699116416   -2.9563539473
C       -1.2245224150   -0.9733275705   -0.7920663303
H       -1.4891860889   -1.7839405205   -0.1183751296
13   
From optimize.out: Frame 18 / 21, Energy=    -286.8754023048
C        1.5254334782    0.3800023753   -1.8586249167
C        1.1047959930   -0.9572017785   -1.9198099723
C       -0.3805056739   -0.9716321669   -2.0830446457
C       -1.4672523911    0.3357865952   -0.8122479665
C       -0.6915579860    0.5786986090   -2.1074735070
N        0.5711284666    1.2993586750   -1.9584841155
H        2.5582185300    0.6953902161   -1.7157388591
H        1.7475442945   -1.8261607086   -1.8293790631
H       -0.7587126501   -1.5999142305   -2.9003570653
H       -2.0026366215    1.0150808380   -0.1557684886
H       -1.2742898525    0.9744961786   -2.9487352666
C       -1.2253765932   -0.9787641674   -0.7990303843
H       -1.4986134099   -1.7890596978   -0.1286034433
13   
From optimize.out: Frame 19 / 21, Energy=    -286.8754475984
C        1.5213617661    0.3800028590   -1.8565519836
C        1.1014789139   -0.9576352021   -1.9250723060
C       -0.3836412833   -0.9733885379   -2.0829233728
C       -1.4715926735    0.3351331044   -0.8155139414
C       -0.6908008747    0.5772313826   -2.1080359139
N        0.5676720849    1.3005432086   -1.9524571021
H        2.5534240703    0.6951594196   -1.7083960369
H        1.7444696742   -1.8264609413   -1.8354229735
H       -0.7539575365   -1.6003970432   -2.9047969016
H       -1.9952904941    1.0208083131   -0.1563421933
H       -1.2688620943    0.9716712160   -2.9531028906
C       -1.2256228658   -0.9792214965   -0.7975301644
H       -1.4904631029   -1.7873655447   -0.1211519135
13   
From optimize.out: Frame 20 / 21, Energy=    -286.8754496250
C        1.5203380803    0.3799563189   -1.8556779914
C        1.1016698353   -0.9582951739   -1.9257679972
C       -0.3831023251   -0.9736716573   -2.0841178893
C       -1.4711574325    0.3359108066   -0.8163301057
C       -0.6908140632    0.5769699229   -2.1087262869
N        0.5664364576    1.3007627064   -1.9516988659
H        2.5520868370    0.6954927730   -1.7063245641
H        1.7446792298   -1.8271388880   -1.8360658011
H       -0.7557436883   -1.6017940671   -2.9040263986
H       -1.9943915693    1.0209449883   -0.1560610275
H       -1.2683796119    0.9722229038   -2.9535465479
C       -1.2246368425   -0.9785662225   -0.7978800300
H       -1.4888093230   -1.7867136736   -0.1210741882
