13   
From optimize.out: Frame 1 / 2, Energy=    -286.9243173290
C        1.5143146530    0.5169208136   -0.5447309115
C        1.2756695943   -0.8261651460   -0.3177180713
C        0.0609432682   -1.4488562723    0.1419877731
C       -1.3866115770    0.5854280170    0.3805146371
C       -0.5363371001    1.6029706997   -0.0067970645
N        0.7521456300    1.6274969491   -0.4236749827
H        2.5227340230    0.7491750890   -0.8943320385
H        2.1133214216   -1.4916837047   -0.5119802489
H        0.0958371144   -2.5308350293    0.2532017436
H       -2.3883953652    0.8949583120    0.6687326788
H       -0.9748159933    2.6027984089    0.0217636494
C       -1.1124479783   -0.8275575084    0.4492731770
H       -1.9363576907   -1.4546506287    0.7837596584
