13   
Frame   0 IRC: Energy =  -286.8594000000 ; +0.0000 kcal/mol
C        1.5286564080    0.3902593351   -0.2351654439
C        0.6872409828   -0.8528845778    0.0304922217
C       -0.6295034296   -0.5150137283   -0.7595644898
C       -1.1528297976    0.1518669129    0.5354444224
C       -0.5304017605    0.9647109220   -0.6913757028
N        0.8347262269    1.4122124347   -0.5895994139
H        2.5936668892    0.4665516664   -0.0262275024
H        1.1788224180   -1.8235410863   -0.0544178491
H       -1.1605439096   -1.1327097683   -1.4764933270
H       -2.1642826977    0.3944223823    0.8427326584
H       -1.2332577065    1.6097159869   -1.2070020273
C       -0.1130656199   -0.5300159174    1.2902507148
H        0.1607719970   -0.5355745619    2.3409257385
13   
Frame   1 IRC: Energy =  -286.8585664722 ; +0.5230 kcal/mol
C        1.5349662100    0.4052706827   -0.2551094710
C        0.7000081370   -0.8367727394    0.0412584602
C       -0.6235178615   -0.5138412927   -0.7461581744
C       -1.1375788985    0.1850816397    0.5437312740
C       -0.5300270426    0.9660692063   -0.7022156636
N        0.8365511258    1.4188202703   -0.6237532012
H        2.6019432014    0.4900318299   -0.0595490131
H        1.1940376091   -1.8069595715   -0.0297392826
H       -1.1652923534   -1.1505692637   -1.4369775035
H       -2.1465826718    0.4283339088    0.8565666553
H       -1.2368338347    1.5960098737   -1.2311978263
C       -0.0974012932   -0.4974638067    1.2950617503
H        0.0697276723   -0.6840107373    2.3480819960
13   
Frame   2 IRC: Energy =  -286.8574561720 ; +1.2198 kcal/mol
C        1.5373188721    0.4165771206   -0.2717579200
C        0.7091844129   -0.8252419613    0.0474320450
C       -0.6207862425   -0.5219704446   -0.7314050827
C       -1.1203328298    0.2175283134    0.5514471631
C       -0.5330678846    0.9615721773   -0.7086284327
N        0.8322868987    1.4202634330   -0.6523564446
H        2.6016671433    0.5109393467   -0.0666671143
H        1.2026255203   -1.7962076041   -0.0087338362
H       -1.1598833189   -1.1661369858   -1.4197169162
H       -2.1195016457    0.4743796775    0.8863637455
H       -1.2482902487    1.5713287487   -1.2494692734
C       -0.0631830447   -0.4441196131    1.3055964369
H       -0.0180376323   -0.8189122081    2.3178956295
13   
Frame   3 IRC: Energy =  -286.8545930492 ; +3.0164 kcal/mol
C        1.5267044196    0.4233630234   -0.2659136454
C        0.7084669164   -0.8319164691    0.0407582592
C       -0.6078704358   -0.5394013702   -0.7609659183
C       -1.1122040271    0.2486206292    0.5620186864
C       -0.5449434456    0.9435043192   -0.7054489048
N        0.8156751724    1.4240243150   -0.6440670268
H        2.5903386842    0.5264671988   -0.0641853298
H        1.2176411096   -1.7953546038    0.0020731798
H       -1.1141777768   -1.1988497630   -1.4640548272
H       -2.0637991852    0.5819710573    0.9720759964
H       -1.2733622555    1.5324241354   -1.2508277618
C       -0.0827253883   -0.4672456919    1.2844190331
H       -0.0597437879   -0.8476067802    2.2941182593
13   
Frame   4 IRC: Energy =  -286.8480714795 ; +7.1088 kcal/mol (Transition State)
C        1.5224330836    0.4269583461   -0.2628262238
C        0.7059940431   -0.8329499508    0.0329746446
C       -0.5228600621   -0.5622135145   -0.8707655909
C       -1.0912966541    0.3288458744    0.6305580247
C       -0.5703313762    0.9107003212   -0.6848043235
N        0.8009670936    1.4240656778   -0.6319001360
H        2.5881713852    0.5289733817   -0.0699618591
H        1.2210224567   -1.7928814443    0.0155936622
H       -1.1116576424   -1.2344885525   -1.4815638484
H       -2.0610005300    0.6228811827    1.0254134769
H       -1.2788685899    1.5150731809   -1.2426825883
C       -0.1264242170   -0.4827112132    1.2629661115
H       -0.0761489904   -0.8522532896    2.2769986502
13   
Frame   5 IRC: Energy =  -286.8556314116 ; +2.3648 kcal/mol
C        1.5200126220    0.4301758318   -0.2593978866
C        0.7011785216   -0.8321453283    0.0235818538
C       -0.4268559536   -0.5817242794   -0.9938019337
C       -1.0771506997    0.3919284064    0.7096769727
C       -0.5988720039    0.8713708421   -0.6676203862
N        0.7907455677    1.4193318047   -0.6236346786
H        2.5877222819    0.5302627146   -0.0748401086
H        1.2226210692   -1.7892171159    0.0254449269
H       -1.1145478278   -1.2575946709   -1.4782847050
H       -2.0612349875    0.6533505252    1.0690478776
H       -1.2808412129    1.5037116464   -1.2352351824
C       -0.1713915995   -0.4790938654    1.2454780919
H       -0.0913857775   -0.8603565112    2.2595851581
13   
Frame   6 IRC: Energy =  -286.8667709362 ; -4.6253 kcal/mol
C        1.5165000842    0.4383916942   -0.2463186806
C        0.7007530010   -0.8318904996    0.0117627197
C       -0.3397942855   -0.5869622624   -1.1006207206
C       -1.0822376227    0.4299875306    0.7464775894
C       -0.6199632688    0.8341167618   -0.6662395181
N        0.7777487172    1.4163628970   -0.6121457132
H        2.5879090435    0.5348831565   -0.0823604566
H        1.2292168346   -1.7839693006    0.0433500049
H       -1.1038179760   -1.2793526609   -1.4479226591
H       -2.0475789743    0.7162565846    1.1439097378
H       -1.2880946736    1.4817765755   -1.2295408640
C       -0.2106057912   -0.4846000233    1.2153509295
H       -0.1200350885   -0.8850004534    2.2242976308
13   
Frame   7 IRC: Energy =  -286.8716411760 ; -7.6815 kcal/mol
C        1.5082604086    0.4540410186   -0.2334762772
C        0.7034247430   -0.8321985129    0.0054779731
C       -0.3105720792   -0.5931535311   -1.1256415004
C       -1.0907274457    0.4344143095    0.7397775814
C       -0.6314810400    0.8216822705   -0.6750763512
N        0.7631928408    1.4253103265   -0.6023244271
H        2.5820012889    0.5521738867   -0.0862175974
H        1.2465282280   -1.7748770265    0.0580413778
H       -1.0741431419   -1.3118092625   -1.4180518858
H       -1.9781205303    0.8232882759    1.2289317457
H       -1.3037280926    1.4545433605   -1.2501493711
C       -0.2425141010   -0.5113897263    1.1831620128
H       -0.1721210786   -0.9420253889    2.1755467193
13   
Frame   8 IRC: Energy =  -286.8734730000 ; -8.8309 kcal/mol
C        1.4956025620    0.4670410401   -0.2289301929
C        0.7034406651   -0.8338871506    0.0039744227
C       -0.3040337305   -0.6069548509   -1.1287569747
C       -1.0784236043    0.4520358916    0.7473299644
C       -0.6401905716    0.8106003920   -0.6828536631
N        0.7468592491    1.4284081184   -0.6137036797
H        2.5656966896    0.5836322925   -0.0710247403
H        1.2670569459   -1.7648816519    0.0572083986
H       -1.0510917850   -1.3449674063   -1.4127903032
H       -1.8838475559    0.9318405767    1.2906739532
H       -1.3225631791    1.4223563015   -1.2692059068
C       -0.2618234258   -0.5303782599    1.1692420315
H       -0.2366822596   -1.0148452932    2.1388366903
