13   
From qcopt_rct.out: Frame 2 / 2, Energy=    -286.8383803540
C        1.5231813390    0.3852152491   -0.2296862226
C        0.6819030992   -0.8596348998    0.0256880495
C       -0.6341518641   -0.5172270571   -0.7613612886
C       -1.1582784257    0.1357295985    0.5318490904
C       -0.5311857537    0.9629470399   -0.6815021873
N        0.8340653503    1.4117274717   -0.5736761075
H        2.5881664696    0.4569011848   -0.0144194970
H        1.1711694107   -1.8319472928   -0.0642671796
H       -1.1583347610   -1.1247595836   -1.4929784487
H       -2.1724186517    0.3734361427    0.8374336606
H       -1.2330611332    1.6124657011   -1.1945277586
C       -0.1138090947   -0.5393904672    1.2898503756
H        0.2027540148   -0.4654630867    2.3275975132
13   
From qcopt_prd.out: Frame 3 / 3, Energy=    -286.8516507571
C        1.4911941874    0.4714336195   -0.2289717559
C        0.7034291338   -0.8341089461    0.0007362804
C       -0.3017785272   -0.6079099588   -1.1330174024
C       -1.0747827748    0.4502358855    0.7468664244
C       -0.6406011864    0.8079023838   -0.6838000855
N        0.7451032510    1.4316818215   -0.6157796221
H        2.5604990025    0.5914968476   -0.0631039254
H        1.2706832759   -1.7635461480    0.0529996396
H       -1.0552441733   -1.3470421114   -1.4003503834
H       -1.8679135414    0.9426776124    1.2986717610
H       -1.3268377145    1.4173575114   -1.2699622629
C       -0.2636855739   -0.5354077592    1.1640899444
H       -0.2400653590   -1.0247707584    2.1316213879
