13   
From optimize.out: Frame 1 / 3, Energy=    -286.8549634740
C        1.6719244309    0.3314353752   -0.3263684253
C        1.0804919964   -0.8827368240   -0.3028906952
C       -0.3507527566   -1.0539018818   -0.0009283164
C       -1.1374459891    0.3655191548    0.1144997171
C       -0.2933788800    1.5329140741   -0.2044643278
N        0.9893830334    1.5494008637   -0.3207906216
H        2.7422075806    0.4208289926   -0.4904210088
H        1.6607263676   -1.7761400108   -0.5208781112
H       -0.8552749409   -1.9042885573   -0.4636294966
H       -2.1694564504    0.4405403106   -0.2337430022
H       -0.8217658915    2.4674880809   -0.4096236625
C       -0.8881700118   -0.5252253247    1.2509821520
H       -1.6284884889   -0.9658342528    1.9082557988
13   
From optimize.out: Frame 2 / 3, Energy=    -286.8549693703
C        1.6724632058    0.3311160337   -0.3250581421
C        1.0799246500   -0.8827735733   -0.3043633466
C       -0.3513940272   -1.0536564506   -0.0024302983
C       -1.1382218189    0.3660142204    0.1145343891
C       -0.2937296476    1.5327570016   -0.2046341556
N        0.9889836982    1.5484623459   -0.3224042151
H        2.7439088975    0.4214526934   -0.4842405892
H        1.6596517633   -1.7760802000   -0.5235045788
H       -0.8555977654   -1.9047507362   -0.4640319070
H       -2.1712900106    0.4414158576   -0.2307127162
H       -0.8220975223    2.4664347263   -0.4127188969
C       -0.8868972542   -0.5249655330    1.2503662136
H       -1.6257041688   -0.9654263854    1.9091982433
