13   
Frame   0 IRC: Energy =  -286.7511897150 ; +0.0000 kcal/mol
C        1.3752161196    0.4386103007   -1.9041452740
C        0.2748442867   -1.4882525680    1.7288941625
C       -0.9539552648   -1.0441857678    1.5041220839
C       -1.3826196781   -0.0963319347    0.4703555377
C       -0.6012169490    0.5078903446   -0.4450687737
N        0.8055330511    0.2779938395   -0.5068268692
H        1.4594598234   -0.1641715423   -2.7917705009
H        0.7178028860   -2.1719860884    2.4426277962
H       -1.7597170328   -1.4130133103    2.1519418867
H       -2.4434791337    0.1392201146    0.4454802217
H       -1.0321981955    1.2011777785   -1.1731124212
C        1.5717216917    1.4342570075   -1.1258932655
H        1.9686083956    2.3787918263   -0.7966045839
13   
Frame   1 IRC: Energy =  -286.7511052371 ; +0.0530 kcal/mol
C        1.3773247585    0.4289346937   -1.8951075837
C        0.2648006019   -1.5128837241    1.7488722436
C       -0.9544351005   -1.0590700927    1.4966797761
C       -1.3668436376   -0.0961849320    0.4735485148
C       -0.5797574485    0.5285472715   -0.4222849453
N        0.8307778651    0.3159785332   -0.4775202380
H        1.4454534683   -0.2030946906   -2.7632931658
H        0.6867514535   -2.2097339438    2.4622933761
H       -1.7734085099   -1.4400075657    2.1219859248
H       -2.4285091884    0.1353465993    0.4372465854
H       -1.0149744090    1.2288658126   -1.1414141241
C        1.5654403183    1.4588477820   -1.1616799266
H        1.9473798283    2.4244542565   -0.8793264373
13   
Frame   2 IRC: Energy =  -286.7510281900 ; +0.1014 kcal/mol
C        1.3827080093    0.4057321594   -1.8622968423
C        0.2615032891   -1.5359653436    1.7277177637
C       -0.9551780292   -1.0709872806    1.4842568440
C       -1.3649356966   -0.0923484600    0.4754245146
C       -0.5752084521    0.5579502520   -0.3992029022
N        0.8386152886    0.3689750343   -0.4417361374
H        1.4633208631   -0.2764168435   -2.6897571971
H        0.6808334737   -2.2419139806    2.4337440697
H       -1.7749743641   -1.4557847350    2.1061817592
H       -2.4281239583    0.1310141632    0.4326771128
H       -1.0129197763    1.2675648585   -1.1078486778
C        1.5552931769    1.4793606034   -1.1914764292
H        1.9290661758    2.4628195726   -0.9676838780
13   
Frame   3 IRC: Energy =  -286.7509552113 ; +0.1472 kcal/mol
C        1.3909860743    0.3786818057   -1.8228150104
C        0.2626440344   -1.5501713927    1.6934581727
C       -0.9553884473   -1.0791501098    1.4696501609
C       -1.3692837373   -0.0860437458    0.4765233267
C       -0.5786290123    0.5878706872   -0.3788857251
N        0.8371499654    0.4168260286   -0.4093176694
H        1.4898995870   -0.3497769599   -2.6061038557
H        0.6886115454   -2.2629316289    2.3885615496
H       -1.7708002387   -1.4688085956    2.0938790777
H       -2.4340755639    0.1285732199    0.4308036412
H       -1.0168551529    1.3073400459   -1.0769630729
C        1.5448825718    1.4905322547   -1.2142013330
H        1.9108583740    2.4870583906   -1.0445892625
13   
Frame   4 IRC: Energy =  -286.7508839235 ; +0.1919 kcal/mol
C        1.4004673251    0.3500321643   -1.7805604409
C        0.2656293912   -1.5606884458    1.6537516412
C       -0.9553775354   -1.0857524968    1.4541358348
C       -1.3762319818   -0.0787131440    0.4772991127
C       -0.5853619978    0.6180061946   -0.3597177226
N        0.8318180966    0.4625383712   -0.3782980754
H        1.5200990425   -0.4231528552   -2.5182453818
H        0.7020821731   -2.2793097997    2.3364656868
H       -1.7642403779   -1.4806880852    2.0830317348
H       -2.4426609790    0.1269184468    0.4300507215
H       -1.0232801861    1.3475625153   -1.0471913036
C        1.5343624621    1.4978213905   -1.2339870341
H        1.8926945674    2.5054257441   -1.1167347736
13   
Frame   5 IRC: Energy =  -286.7507914071 ; +0.2499 kcal/mol
C        1.4099050456    0.3212309874   -1.7334906781
C        0.2715427405   -1.5640224160    1.6043827512
C       -0.9550055188   -1.0898210011    1.4373208937
C       -1.3887034182   -0.0722761884    0.4753417702
C       -0.5991207046    0.6453094692   -0.3460997870
N        0.8191760782    0.5043725415   -0.3504750385
H        1.5500295154   -0.4915957443   -2.4239221269
H        0.7260810274   -2.2841682596    2.2736270411
H       -1.7521678980   -1.4881013754    2.0780683165
H       -2.4567236089    0.1243081037    0.4304532524
H       -1.0349579119    1.3850280643   -1.0230973221
C        1.5271040900    1.4982569552   -1.2464273699
H        1.8828405633    2.5114788635   -1.1756817025
13   
Frame   6 IRC: Energy =  -286.7506618733 ; +0.3312 kcal/mol
C        1.4189982888    0.2907140132   -1.6850135466
C        0.2807686504   -1.5553201408    1.5476350258
C       -0.9547994170   -1.0900478486    1.4200289240
C       -1.4078651504   -0.0644336979    0.4725658534
C       -0.6191334588    0.6721247386   -0.3357799244
N        0.7997192877    0.5350155774   -0.3259534092
H        1.5784833402   -0.5548039901   -2.3314497597
H        0.7627338147   -2.2734049004    2.1995563228
H       -1.7347945670   -1.4950297586    2.0767967246
H       -2.4778150692    0.1202252362    0.4311920182
H       -1.0488849205    1.4199267361   -1.0064935306
C        1.5228766015    1.4900002560   -1.2489496306
H        1.8797125997    2.5050337787   -1.2141350674
13   
Frame   7 IRC: Energy =  -286.7503773214 ; +0.5098 kcal/mol
C        1.4166767554    0.2628415869   -1.6400257693
C        0.2966360278   -1.5201307010    1.4873201565
C       -0.9510340520   -1.0782495203    1.3999486327
C       -1.4345746367   -0.0563830647    0.4651059994
C       -0.6469249022    0.6842176680   -0.3391454844
N        0.7708866616    0.5392053542   -0.3006753974
H        1.5783209621   -0.5969106426   -2.2666003388
H        0.8191776886   -2.2288456619    2.1170256090
H       -1.7061090358   -1.4955686593    2.0768669532
H       -2.5070555851    0.1151921592    0.4291532531
H       -1.0689267303    1.4305010067   -1.0164902308
C        1.5294625485    1.4676662045   -1.2207267175
H        1.9034642981    2.4764642703   -1.1917566657
13   
Frame   8 IRC: Energy =  -286.7498064461 ; +0.8680 kcal/mol
C        1.4135519998    0.2412701565   -1.6071431075
C        0.3095258442   -1.4880518773    1.4260900794
C       -0.9485828479   -1.0661076235    1.3854021891
C       -1.4630634664   -0.0550526842    0.4551855248
C       -0.6775254578    0.6877269542   -0.3489164191
N        0.7384574606    0.5323797731   -0.2890971344
H        1.5822498749   -0.6250894948   -2.2231797886
H        0.8750405173   -2.1751368973    2.0415323558
H       -1.6748722330   -1.4810691661    2.0942142757
H       -2.5377082129    0.1051913440    0.4266522009
H       -1.0911763221    1.4350528119   -1.0302780029
C        1.5360511839    1.4458132482   -1.1882357273
H        1.9380516594    2.4430734552   -1.1422264457
13   
Frame   9 IRC: Energy =  -286.7488302878 ; +1.4806 kcal/mol
C        1.4112208360    0.2223618145   -1.5800034100
C        0.3184839423   -1.4568984474    1.3646715060
C       -0.9479542136   -1.0549878515    1.3741129670
C       -1.4910445392   -0.0568028750    0.4452345247
C       -0.7059818513    0.6857944191   -0.3603342562
N        0.7091857908    0.5176983090   -0.2820165861
H        1.5845652963   -0.6459496743   -2.1923893985
H        0.9308390318   -2.1156039783    1.9687409594
H       -1.6448993380   -1.4604674324    2.1178086329
H       -2.5667418821    0.0960203768    0.4241730631
H       -1.1102179532    1.4361020738   -1.0456975394
C        1.5428879717    1.4238459465   -1.1531806968
H        1.9696569084    2.4088873192   -1.0811197662
13   
Frame  10 IRC: Energy =  -286.7474745456 ; +2.3313 kcal/mol
C        1.4116182436    0.2027730612   -1.5493284567
C        0.3189865469   -1.4287782416    1.3048988903
C       -0.9519085002   -1.0478964953    1.3658143410
C       -1.5165070168   -0.0590421063    0.4377491335
C       -0.7265015504    0.6785646062   -0.3680836650
N        0.6843995968    0.4980633714   -0.2722613305
H        1.5768839748   -0.6620782763   -2.1694598932
H        0.9893028197   -2.0444386957    1.8872777696
H       -1.6198653916   -1.4413133078    2.1401344235
H       -2.5929767265    0.0953563234    0.4216466062
H       -1.1145968029    1.4275847952   -1.0609882459
C        1.5527433003    1.4011765991   -1.1140033804
H        1.9884215064    2.3800283666   -1.0233961925
13   
Frame  11 IRC: Energy =  -286.7454339626 ; +3.6118 kcal/mol
C        1.4200431809    0.1878716061   -1.5060324467
C        0.3076159648   -1.4042179629    1.2416912994
C       -0.9684312876   -1.0503298094    1.3595604206
C       -1.5446194771   -0.0648698031    0.4358110295
C       -0.7382917306    0.6571720237   -0.3705349358
N        0.6730677894    0.4661451482   -0.2526321775
H        1.5553339940   -0.6582105323   -2.1585215429
H        1.0375816853   -1.9605209261    1.8092875065
H       -1.6020584650   -1.4413119441    2.1631975306
H       -2.6186082581    0.1126772254    0.4323206346
H       -1.0991530624    1.4016606107   -1.0795877097
C        1.5736393455    1.3853898947   -1.0735007845
H        2.0038803209    2.3685444690   -1.0010588241
13   
Frame  12 IRC: Energy =  -286.7415915437 ; +6.0229 kcal/mol
C        1.4199053574    0.1886534622   -1.4538268054
C        0.2986440597   -1.3678374070    1.1895209818
C       -0.9848775461   -1.0520764578    1.3566459643
C       -1.5776523713   -0.0733002840    0.4442330938
C       -0.7480698175    0.6130388447   -0.3716046236
N        0.6590339430    0.3901615405   -0.2408193257
H        1.5333768623   -0.6333298777   -2.1422209632
H        1.0463570608   -1.8991077399    1.7578987664
H       -1.5869871500   -1.4578945088    2.1751069242
H       -2.6471874921    0.1287136074    0.4540670703
H       -1.0674394956    1.3725535310   -1.0795130712
C        1.6253619584    1.3970846569   -1.0745312648
H        2.0295346309    2.3933406326   -1.0149567468
13   
Frame  13 IRC: Energy =  -286.7409114142 ; +6.4497 kcal/mol (Transition State)
C        1.4100080900    0.1987588840   -1.4060682927
C        0.2995211003   -1.3258634112    1.1488891912
C       -0.9912638044   -1.0484827559    1.3512684154
C       -1.6006484990   -0.0750184468    0.4570757432
C       -0.7519941038    0.5850506362   -0.3611760835
N        0.6215608562    0.2776920515   -0.2083783361
H        1.5243344437   -0.6106334901   -2.1258397816
H        1.0451766218   -1.8676930805    1.7285658819
H       -1.5784310740   -1.4683926588    2.1718139540
H       -2.6631392010    0.1340220483    0.4632533805
H       -1.0479023433    1.3545606716   -1.0724503266
C        1.6888024101    1.4232600058   -1.1273579561
H        2.0439755035    2.4227395460   -1.0195957895
13   
Frame  14 IRC: Energy =  -286.7656063014 ; -9.0466 kcal/mol
C        1.4035788863    0.2129896084   -1.3632666368
C        0.3045062037   -1.2756736713    1.1053934614
C       -0.9979019716   -1.0432425724    1.3438333449
C       -1.6186917847   -0.0749449694    0.4691735144
C       -0.7494811741    0.5643212647   -0.3474399269
N        0.5764595221    0.1618503728   -0.1607533543
H        1.5192617427   -0.5922419690   -2.1125965896
H        1.0447757883   -1.8431762414    1.7019098053
H       -1.5712876416   -1.4776150672    2.1660811682
H       -2.6731202838    0.1367581777    0.4698734574
H       -1.0342725196    1.3412859617   -1.0665500312
C        1.7445739566    1.4464872186   -1.1867074532
H        2.0515992758    2.4432018871   -1.0189507597
13   
Frame  15 IRC: Energy =  -286.8052078723 ; -33.8969 kcal/mol
C        1.3973510583    0.2201670301   -1.3150001453
C        0.3121521888   -1.2132189877    1.0542955549
C       -1.0050186462   -1.0380097547    1.3361557894
C       -1.6366414354   -0.0749552007    0.4829616995
C       -0.7472718788    0.5440764804   -0.3305741039
N        0.5416566336    0.0538527661   -0.1183345101
H        1.5146559136   -0.5705963127   -2.0937708006
H        1.0417933204   -1.8124379838    1.6637287790
H       -1.5612454587   -1.4880467518    2.1593539273
H       -2.6856723230    0.1402538369    0.4774502497
H       -1.0164336283    1.3256036688   -1.0578540691
C        1.7919305353    1.4553792036   -1.2467578633
H        2.0527437205    2.4579320055   -1.0116545076
13   
Frame  16 IRC: Energy =  -286.8403474200 ; -55.9474 kcal/mol
C        1.3952349078    0.2194845095   -1.2607970884
C        0.3192064041   -1.1447439783    0.9996626151
C       -1.0104401256   -1.0331462488    1.3292724326
C       -1.6557408541   -0.0750451305    0.4984192579
C       -0.7483681978    0.5236284019   -0.3125745520
N        0.5156980730   -0.0367443582   -0.0870584864
H        1.5090091879   -0.5466649625   -2.0656050842
H        1.0359405117   -1.7693270818    1.6069195590
H       -1.5456285649   -1.5013713202    2.1530302287
H       -2.7027781493    0.1457225015    0.4872899632
H       -0.9907124308    1.3051056584   -1.0460641047
C        1.8324170611    1.4518118745   -1.3024828615
H        2.0461621769    2.4612901346   -1.0000118795
13   
Frame  17 IRC: Energy =  -286.8623499085 ; -69.7541 kcal/mol
C        1.4020203604    0.2136809704   -1.2021459431
C        0.3161911589   -1.0886050556    0.9573949707
C       -1.0153166075   -1.0269213003    1.3252476258
C       -1.6783792053   -0.0732518970    0.5159865613
C       -0.7569014820    0.5045536367   -0.2984563785
N        0.4899170573   -0.0879057651   -0.0820421327
H        1.5033931142   -0.5263353598   -2.0202171926
H        1.0363002405   -1.7092631320    1.5232567177
H       -1.5192830004   -1.5218330959    2.1478946309
H       -2.7262755902    0.1550379235    0.5022151200
H       -0.9531485100    1.2790133343   -1.0357607783
C        1.8700502275    1.4360644757   -1.3461989360
H        2.0314322366    2.4457652651   -0.9871742651
13   
Frame  18 IRC: Energy =  -286.8741652554 ; -77.1684 kcal/mol
C        1.4126216871    0.2064569903   -1.1551212285
C        0.3009312566   -1.0545208973    0.9302972667
C       -1.0231303831   -1.0184500313    1.3272833111
C       -1.7052531097   -0.0652420959    0.5306372998
C       -0.7819102692    0.4981150016   -0.2994490556
N        0.4576127749   -0.0886231848   -0.0944810217
H        1.5081833413   -0.5321183111   -1.9593262507
H        1.0648879421   -1.6492728061    1.4248521295
H       -1.4839164444   -1.5538444946    2.1467790968
H       -2.7551045646    0.1695063348    0.5256123449
H       -0.9162381627    1.2626024935   -1.0446769892
C        1.9076740775    1.4095176576   -1.3589017365
H        2.0136418542    2.4158733433   -0.9735051668
13   
Frame  19 IRC: Energy =  -286.8811807544 ; -81.5707 kcal/mol
C        1.4119856160    0.1918041282   -1.1290724986
C        0.2924653623   -1.0270207799    0.9053579795
C       -1.0249731432   -1.0102381295    1.3267663892
C       -1.7280697980   -0.0540842684    0.5404262640
C       -0.8150527856    0.5112199010   -0.3096206390
N        0.4236383918   -0.0687310198   -0.1077233960
H        1.5349964613   -0.5765746201   -1.8931555379
H        1.1060974533   -1.6036935696    1.3290180436
H       -1.4491034754   -1.5853859683    2.1401730834
H       -2.7801240845    0.1835659013    0.5602634976
H       -0.9156212627    1.2660151259   -1.0705545412
C        1.9421851529    1.3836657178   -1.3388382161
H        2.0015761118    2.3894575814   -0.9530404283
13   
Frame  20 IRC: Energy =  -286.8857428801 ; -84.4335 kcal/mol
C        1.4143062079    0.1810928113   -1.1167273361
C        0.2897396333   -1.0025555907    0.8759477698
C       -1.0189685645   -1.0012907985    1.3216405993
C       -1.7418779305   -0.0425080970    0.5520460295
C       -0.8481441972    0.5294869431   -0.3193395139
N        0.3936704916   -0.0476778972   -0.1312213234
H        1.5825506549   -0.6334615489   -1.8222576186
H        1.1351035094   -1.5684846590    1.2434224058
H       -1.4181608678   -1.6042891373    2.1270731835
H       -2.7948085608    0.1922309890    0.6043936328
H       -0.9565196294    1.2753704742   -1.0894502412
C        1.9709259909    1.3571271500   -1.3184859207
H        1.9921832622    2.3649593609   -0.9270416669
13   
Frame  21 IRC: Energy =  -286.8885938805 ; -86.2225 kcal/mol
C        1.4207461120    0.1695782220   -1.1106704912
C        0.2864035903   -0.9848274403    0.8415418752
C       -1.0103349386   -0.9920793927    1.3164787048
C       -1.7514739497   -0.0309450515    0.5661724700
C       -0.8806520083    0.5441698634   -0.3301376304
N        0.3646474203   -0.0346931907   -0.1651937964
H        1.6485953170   -0.6847703345   -1.7474023057
H        1.1529100801   -1.5433185837    1.1663944762
H       -1.3883297213   -1.6122528753    2.1184479335
H       -2.8033085974    0.2007698815    0.6536717048
H       -1.0170142403    1.2863929099   -1.1006628477
C        1.9975353794    1.3380926551   -1.3016725346
H        1.9802755565    2.3438833368   -0.9069675585
13   
Frame  22 IRC: Energy =  -286.8901131564 ; -87.1758 kcal/mol
C        1.4316486434    0.1603074148   -1.1025934228
C        0.2782616672   -0.9823416592    0.8047854098
C       -1.0028559014   -0.9823620836    1.3147522311
C       -1.7568982149   -0.0183476961    0.5829008912
C       -0.9104522623    0.5502486448   -0.3426235795
N        0.3344270204   -0.0408388194   -0.2074846663
H        1.7317526985   -0.7221755205   -1.6678199953
H        1.1587885308   -1.5374640503    1.0941450417
H       -1.3584174511   -1.6049301719    2.1223685770
H       -2.8029386648    0.2188064627    0.7055155885
H       -1.0742873860    1.2913303784   -1.1101587066
C        2.0145817668    1.3278922290   -1.2852679747
H        1.9563895535    2.3398748713   -0.9085193941
13   
Frame  23 IRC: Energy =  -286.8909547007 ; -87.7039 kcal/mol
C        1.4462277864    0.1539034945   -1.0926352381
C        0.2691530411   -1.0007157828    0.7745006926
C       -0.9981475920   -0.9759486239    1.3183902883
C       -1.7521883267    0.0015894121    0.6002671841
C       -0.9173945624    0.5500898356   -0.3497993140
N        0.3186704339   -0.0652322465   -0.2421989637
H        1.8196155633   -0.7399898051   -1.5924082871
H        1.1484156026   -1.5697733652    1.0417710641
H       -1.3444042260   -1.5888736458    2.1395369871
H       -2.7934415321    0.2557560100    0.7493167418
H       -1.0945420578    1.2881205546   -1.1181138318
C        2.0002114853    1.3337460559   -1.2805348807
H        1.8978243844    2.3573281068   -0.9480924428
13   
Frame  24 IRC: Energy =  -286.8916151305 ; -88.1184 kcal/mol
C        1.4602841305    0.1496153862   -1.0746476080
C        0.2619113221   -1.0240313051    0.7634341185
C       -0.9996732015   -0.9778459687    1.3175370368
C       -1.7388319967    0.0195223710    0.6138998761
C       -0.9027201427    0.5557927260   -0.3416030878
N        0.3218098086   -0.0832448613   -0.2473649570
H        1.8843101368   -0.7459161151   -1.5254713602
H        1.1307065254   -1.6128199932    1.0179318068
H       -1.3513225470   -1.5900564013    2.1363545122
H       -2.7715666949    0.2953395787    0.7751919069
H       -1.0719644144    1.3019046061   -1.1029967095
C        1.9678912163    1.3411424886   -1.3062283938
H        1.8091658578    2.3705974881   -1.0260371410
13   
Frame  25 IRC: Energy =  -286.8922275666 ; -88.5027 kcal/mol
C        1.4759545668    0.1450941062   -1.0570821659
C        0.2562831637   -1.0460669246    0.7580125776
C       -1.0039170863   -0.9847437320    1.3142365872
C       -1.7255521105    0.0365936000    0.6264374343
C       -0.8844487316    0.5633306380   -0.3296669536
N        0.3312822325   -0.0929125247   -0.2406022773
H        1.9428198327   -0.7521900972   -1.4619325731
H        1.1136744295   -1.6560563525    1.0015237930
H       -1.3654486302   -1.6006284299    2.1259674933
H       -2.7503700175    0.3348748984    0.7981683331
H       -1.0401460663    1.3238046709   -1.0798532885
C        1.9332566736    1.3471308292   -1.3388016068
H        1.7166117436    2.3817693182   -1.1164073534
13   
Frame  26 IRC: Energy =  -286.8927940596 ; -88.8581 kcal/mol
C        1.4886332214    0.1441633975   -1.0393918427
C        0.2508165898   -1.0638017743    0.7523488915
C       -1.0075967458   -0.9912027187    1.3108855849
C       -1.7151564169    0.0489392469    0.6366883469
C       -0.8669820862    0.5766218766   -0.3122114965
N        0.3385281030   -0.0993116641   -0.2346465318
H        2.0000677769   -0.7510709151   -1.3863219527
H        1.0976009687   -1.6927677920    0.9836610405
H       -1.3782451183   -1.6132927594    2.1136235404
H       -2.7343924011    0.3617586223    0.8149213787
H       -1.0103032401    1.3524087863   -1.0488195728
C        1.9029162999    1.3475667510   -1.3743376007
H        1.6341130486    2.3799889431   -1.2163997857
13   
Frame  27 IRC: Energy =  -286.8933362182 ; -89.1984 kcal/mol
C        1.5006097076    0.1453581789   -1.0205416160
C        0.2451665279   -1.0801977664    0.7462111753
C       -1.0113306444   -0.9980102916    1.3071737709
C       -1.7055853529    0.0604846716    0.6473024772
C       -0.8511826055    0.5899374735   -0.2946320573
N        0.3447957066   -0.1041627671   -0.2288472263
H        2.0563567175   -0.7456424249   -1.3053112310
H        1.0819105268   -1.7269838201    0.9650411872
H       -1.3905533353   -1.6270734609    2.1004234879
H       -2.7197277656    0.3859724041    0.8317811234
H       -0.9836332500    1.3801006468   -1.0179759794
C        1.8753994554    1.3463542129   -1.4103739828
H        1.5577743120    2.3738629434   -1.3202511291
13   
Frame  28 IRC: Energy =  -286.8938256818 ; -89.5055 kcal/mol
C        1.5114450426    0.1512517996   -0.9987094573
C        0.2390034553   -1.0940982266    0.7388983166
C       -1.0153337868   -1.0058224805    1.3025370314
C       -1.6974977688    0.0710292474    0.6593799583
C       -0.8395267732    0.6020062551   -0.2779875908
N        0.3490313412   -0.1057404015   -0.2232701999
H        2.1104439990   -0.7307131519   -1.2130340586
H        1.0669958756   -1.7562090812    0.9447876288
H       -1.4018970618   -1.6432751328    2.0854471420
H       -2.7072824074    0.4061374948    0.8503348561
H       -0.9647480866    1.4038983629   -0.9894224434
C        1.8542329038    1.3421276137   -1.4470344269
H        1.4951332673    2.3594077010   -1.4319267565
13   
Frame  29 IRC: Energy =  -286.8942417720 ; -89.7666 kcal/mol
C        1.5212431200    0.1608015880   -0.9742321686
C        0.2333060310   -1.1045125428    0.7324926733
C       -1.0198120481   -1.0147289220    1.2970261294
C       -1.6930804565    0.0770956677    0.6690130057
C       -0.8302496009    0.6157336440   -0.2588759376
N        0.3518820260   -0.1035149227   -0.2164495419
H        2.1586376525   -0.7075019275   -1.1173802411
H        1.0546566919   -1.7783451255    0.9267734167
H       -1.4126156479   -1.6617190021    2.0688254770
H       -2.7004392710    0.4171882118    0.8641459121
H       -0.9499612237    1.4301597056   -0.9566059702
C        1.8386581420    1.3335466433   -1.4847813998
H        1.4477745847    2.3357969821   -1.5499513549
13   
Frame  30 IRC: Energy =  -286.8946108083 ; -89.9982 kcal/mol
C        1.5302879200    0.1723711715   -0.9485726042
C        0.2279412446   -1.1128387255    0.7266443179
C       -1.0245802244   -1.0243051025    1.2908938336
C       -1.6906617366    0.0808371981    0.6774581399
C       -0.8225707786    0.6301013805   -0.2387499341
N        0.3539675858   -0.0989880023   -0.2088257769
H        2.2034588018   -0.6792838214   -1.0197435190
H        1.0439293096   -1.7962842348    0.9100864498
H       -1.4229786776   -1.6815246891    2.0511032080
H       -2.6966130164    0.4234320117    0.8756621006
H       -0.9378728916    1.4573108040   -0.9219736716
C        1.8262747477    1.3224031028   -1.5229993321
H        1.4094177158    2.3067689070   -1.6709832119
13   
Frame  31 IRC: Energy =  -286.8948498026 ; -90.1481 kcal/mol
C        1.5366580701    0.1873363259   -0.9231050427
C        0.2237247147   -1.1163867528    0.7221712068
C       -1.0300501867   -1.0355168661    1.2826350414
C       -1.6913764254    0.0818343103    0.6851755734
C       -0.8198000706    0.6433899703   -0.2196421734
N        0.3547666228   -0.0890258616   -0.1989449871
H        2.2416988886   -0.6392762139   -0.9178550597
H        1.0373883434   -1.8049754683    0.8963350888
H       -1.4326642239   -1.7045818943    2.0300332256
H       -2.6972493512    0.4233773525    0.8858605396
H       -0.9337156066    1.4822761685   -0.8885009694
C        1.8200554707    1.3057244539   -1.5609990377
H        1.3905637539    2.2658244757   -1.7931634057
13   
Frame  32 IRC: Energy =  -286.8950199710 ; -90.2549 kcal/mol
C        1.5429339380    0.2035507492   -0.8975588010
C        0.2202827770   -1.1183854974    0.7187799924
C       -1.0353653715   -1.0462601219    1.2742913427
C       -1.6936142424    0.0808680983    0.6904822998
C       -0.8171007756    0.6573530328   -0.1995532240
N        0.3565761883   -0.0765051858   -0.1862511907
H        2.2767591284   -0.5946593763   -0.8193302297
H        1.0326211725   -1.8106461579    0.8845914433
H       -1.4418299297   -1.7269361855    2.0089755497
H       -2.7003096821    0.4196654217    0.8919941367
H       -0.9289147769    1.5087278724   -0.8527373794
C        1.8135560959    1.2856430317   -1.5998723847
H        1.3744054781    2.2175843189   -1.9138115552
13   
Frame  33 IRC: Energy =  -286.8951113077 ; -90.3122 kcal/mol
C        1.5491018171    0.2211960552   -0.8719224410
C        0.2177280390   -1.1186097303    0.7166279568
C       -1.0405032777   -1.0564667601    1.2658503942
C       -1.6975966144    0.0776531416    0.6930278597
C       -0.8144832755    0.6720886203   -0.1783404447
N        0.3595431891   -0.0610540249   -0.1703354435
H        2.3081772470   -0.5447632363   -0.7246580205
H        1.0298856647   -1.8128571886    0.8751473873
H       -1.4504002226   -1.7484853758    1.9879319692
H       -2.7061464007    0.4117645391    0.8934719608
H       -0.9233768466    1.5368819941   -0.8143498609
C        1.8067359038    1.2616641537   -1.6397463798
H        1.3613347768    2.1609878121   -2.0327049377
13   
Frame  34 IRC: Energy =  -286.8952002735 ; -90.3681 kcal/mol
C        1.5566951844    0.2295030540   -0.8595926314
C        0.2200800137   -1.1162758618    0.7237054912
C       -1.0485258141   -1.0682352368    1.2511152320
C       -1.6967302477    0.0778924506    0.6933545607
C       -0.8013313182    0.6892429444   -0.1539085386
N        0.3746595445   -0.0402301527   -0.1379842001
H        2.3386394099   -0.5037196199   -0.6678929320
H        1.0304746364   -1.8130215077    0.8804631373
H       -1.4675523283   -1.7722942163    1.9561652617
H       -2.7051592550    0.4129497668    0.8926463800
H       -0.8954213889    1.5738004108   -0.7646344843
C        1.7786557373    1.2290523353   -1.6903474081
H        1.3155158260    2.1013356334   -2.1230898684
