13   
From qcts2.out: Frame 500 / 500, Energy=    -286.8371609345
C        1.4395022704    0.3961600613   -0.0925064047
C        0.7731385589   -0.8460666203   -0.4825376733
C       -0.5489380628   -1.4829724111   -0.6730461338
C       -1.2281613050    0.6968109250    0.2147966116
C       -0.3973726647    1.7264948956   -0.0809935210
N        0.9735353479    1.6080731183    0.0023556827
H        2.4844472373    0.2535517098    0.1797804705
H        1.4674186987   -1.6638086701   -0.2632836510
H       -0.5430276071   -2.5682952850   -0.6186385215
H       -2.3039632948    0.8103458438    0.1124894490
H       -0.7879808273    2.7072741879   -0.3352097186
C       -0.7303915437   -0.6735299706    0.4883471259
H       -0.6626595166   -1.0265510398    1.5202025697
