13   
From optimize.out: Frame 1 / 5, Energy=    -286.8505190740
C        0.4729087708   -0.2303895883    0.1793572147
C        0.3730492992   -1.3472492634   -0.8623886688
C        0.8418463950   -2.5620517549   -0.7065553931
C       -1.0856627858    1.4328634546    0.5215393760
C        0.0914094518    1.9072142316   -0.2227817410
N        0.9895674061    1.0045942025   -0.4334661277
H        1.1773217558   -0.5382026949    0.9633573050
H       -0.1548068316   -1.0657955772   -1.7749910916
H        1.3869461376   -3.1254941125    0.0415417729
H       -1.9427742959    2.0339510522    0.8031192887
H        0.2285314682    2.9275878305   -0.5803483049
C       -0.8671346670    0.1299973599    0.7748597666
H       -1.5112021045   -0.5670251402    1.2967566035
13   
From optimize.out: Frame 2 / 5, Energy=    -286.8505749504
C        0.4646685916   -0.2366458420    0.1892138611
C        0.3573422440   -1.3514929594   -0.8537536440
C        0.8591727435   -2.5552521039   -0.7187106885
C       -1.0864265860    1.4373365520    0.5125684257
C        0.1011994439    1.9016936172   -0.2210711351
N        0.9950099980    0.9930323707   -0.4224996549
H        1.1647103692   -0.5501161955    0.9757192749
H       -0.1981400899   -1.0754253403   -1.7514954986
H        1.4402075087   -3.1065274516    0.0103070288
H       -1.9432727977    2.0448059029    0.7815153603
H        0.2489349548    2.9198568617   -0.5790309832
C       -0.8760125644    0.1352925888    0.7781041939
H       -1.5273938159   -0.5565580008    1.2991334599
13   
From optimize.out: Frame 3 / 5, Energy=    -286.8505925824
C        0.4544418875   -0.2447837385    0.2013477888
C        0.3418353896   -1.3570963875   -0.8433179684
C        0.8832315230   -2.5460400291   -0.7329856952
C       -1.0839080318    1.4447976504    0.5069150473
C        0.1117423884    1.8949531104   -0.2220402679
N        1.0008113825    0.9787204556   -0.4095135947
H        1.1457747540   -0.5657922329    0.9927541060
H       -0.2545159218   -1.0927364211   -1.7181469341
H        1.5070979888   -3.0800771432   -0.0271457635
H       -1.9377625523    2.0611441299    0.7652075534
H        0.2723194560    2.9109566663   -0.5801304926
C       -0.8894479364    0.1406813751    0.7753420515
H       -1.5516203279   -0.5447274356    1.2917141698
13   
From optimize.out: Frame 4 / 5, Energy=    -286.8505973773
C        0.4556283744   -0.2440434559    0.2002947438
C        0.3427997002   -1.3563676241   -0.8445979894
C        0.8808806592   -2.5467900593   -0.7322657859
C       -1.0846620042    1.4434213999    0.5061920816
C        0.1120311673    1.8965232616   -0.2193801825
N        1.0003827572    0.9802669516   -0.4108748766
H        1.1474616248   -0.5652592280    0.9906073916
H       -0.2492391948   -1.0904876804   -1.7218850297
H        1.4997060965   -3.0831676815   -0.0233021517
H       -1.9399505811    2.0579974304    0.7637253815
H        0.2696246603    2.9122756731   -0.5802296105
C       -0.8868969286    0.1405314116    0.7771461405
H       -1.5477663317   -0.5449003991    1.2945698876
