13   
From optimize.out: Frame 1 / 38, Energy=    -286.5779459517
C        1.6868280310    0.3354855984   -2.4364632468
C        1.3635740912   -1.0992734445   -2.3814419338
C       -0.2014787854   -1.2991263815   -2.4393932819
C       -1.3246924915    0.4273759589   -1.0343598414
C       -0.7883465801    1.1798098045   -2.2209108852
N        0.8123315424    1.3076615743   -2.7861737250
H        2.6970111827    0.8517521343   -2.5755200879
H        2.0466138620   -1.8906804747   -2.0027881981
H       -0.2514649951   -1.3129652307   -3.5864670442
H       -0.9393103929    0.8104862214   -0.0890741649
H       -1.7262144881    1.5701219789   -2.7080934136
C       -1.6970773217   -0.9786671917   -1.1378104749
H       -1.9665556925   -1.7320957924   -0.5285007398
13   
From optimize.out: Frame 2 / 38, Energy=    -286.6405227525
C        1.6371707207    0.3453970704   -2.4104036945
C        1.3077777649   -1.0625240232   -2.3657681089
C       -0.2211102263   -1.2911349515   -2.4530753167
C       -1.2728300068    0.3995384564   -1.0549032625
C       -0.7515132305    1.1551212548   -2.2401974408
N        0.7754093181    1.3208617399   -2.7640934264
H        2.6565662380    0.8157652106   -2.5229124576
H        1.9877054082   -1.8435496976   -1.9843366627
H       -0.3317534533   -1.3030838908   -3.5819370123
H       -0.9203010480    0.7962510211   -0.0992840408
H       -1.6527785922    1.5519411248   -2.7644222207
C       -1.6171323955   -0.9753951151   -1.1621772270
H       -1.8859925354   -1.7393034446   -0.5234861666
13   
From optimize.out: Frame 3 / 38, Energy=    -286.6984510207
C        1.5859241984    0.3486798351   -2.3802091634
C        1.2566721437   -1.0325132624   -2.3522672875
C       -0.2408518651   -1.2847956150   -2.4697760252
C       -1.2235102570    0.3783141051   -1.0736955629
C       -0.7128594545    1.1354626352   -2.2593557607
N        0.7217344101    1.3232574587   -2.7412350633
H        2.6100429035    0.7872293403   -2.4641956575
H        1.9349862023   -1.8053504570   -1.9680088378
H       -0.4034590507   -1.3005366806   -3.5802395340
H       -0.8973825051    0.7886790179   -0.1121036991
H       -1.5848602713    1.5373010285   -2.8096118205
C       -1.5354519770   -0.9700558821   -1.1899641255
H       -1.7997665153   -1.7357867684   -0.5263344999
13   
From optimize.out: Frame 4 / 38, Energy=    -286.7489258252
C        1.5364402290    0.3490180482   -2.3509878180
C        1.2110251632   -1.0091378082   -2.3390273090
C       -0.2606865979   -1.2887369799   -2.4832622535
C       -1.1758000764    0.3638757377   -1.0939130643
C       -0.6752979291    1.1292413157   -2.2786520415
N        0.6608905105    1.3237748241   -2.7175443423
H        2.5625593281    0.7632330254   -2.4066231515
H        1.8919966449   -1.7725530392   -1.9535217475
H       -0.4706858651   -1.3114190710   -3.5756372103
H       -0.8759309269    0.7841423264   -0.1264663016
H       -1.5224925096    1.5415712109   -2.8468246877
C       -1.4560421473   -0.9691097101   -1.2221165986
H       -1.7147578614   -1.7340151249   -0.5324205117
13   
From optimize.out: Frame 5 / 38, Energy=    -286.7865106974
C        1.4971855733    0.3475178194   -2.3272737509
C        1.1713290620   -0.9919362052   -2.3260239105
C       -0.2801963235   -1.3075486684   -2.4894486449
C       -1.1369874894    0.3550525847   -1.1167254861
C       -0.6489526697    1.1427555414   -2.2932626472
N        0.6087456824    1.3279058182   -2.6959142313
H        2.5260526417    0.7353420650   -2.3547975533
H        1.8600206565   -1.7444620886   -1.9422585046
H       -0.5388895609   -1.3452491993   -3.5622587196
H       -0.8753595917    0.7802398812   -0.1398192785
H       -1.4751772996    1.5739297948   -2.8712280888
C       -1.3729460214   -0.9727047705   -1.2634000307
H       -1.6236066976   -1.7309578174   -0.5445861911
13   
From optimize.out: Frame 6 / 38, Energy=    -286.8102346698
C        1.4837909719    0.3435122315   -2.3167141907
C        1.1443949518   -0.9803322813   -2.3184011963
C       -0.2953968041   -1.3273792090   -2.4850732509
C       -1.1215549221    0.3495069930   -1.1347963212
C       -0.6438794485    1.1650490931   -2.2978158978
N        0.5910535183    1.3371455102   -2.6833981160
H        2.5184919411    0.6985196170   -2.3183949748
H        1.8427916746   -1.7280808859   -1.9476008903
H       -0.6036091900   -1.3887569201   -3.5371317443
H       -0.9299927323    0.7830073185   -0.1456255532
H       -1.4521179324    1.6205468982   -2.8802458190
C       -1.2885635817   -0.9787490566   -1.3038550391
H       -1.5341904845   -1.7241045535   -0.5579440438
13   
From optimize.out: Frame 7 / 38, Energy=    -286.8253305112
C        1.4795672750    0.3357699768   -2.3185583088
C        1.1369129331   -0.9800573613   -2.3255563562
C       -0.2924083567   -1.3540815087   -2.4838523418
C       -1.1264660197    0.3498992131   -1.1445081950
C       -0.6440984076    1.1878208517   -2.2902360763
N        0.5853379590    1.3424819260   -2.6714683942
H        2.5171323859    0.6682985782   -2.2987262202
H        1.8510858913   -1.7246017988   -1.9807103432
H       -0.6403131546   -1.4477535444   -3.5171493624
H       -1.0286649199    0.7938271541   -0.1471949718
H       -1.4290493652    1.6826077613   -2.8698725925
C       -1.2215315320   -0.9796598787   -1.3256138271
H       -1.4762867265   -1.7046666141   -0.5535500479
13   
From optimize.out: Frame 8 / 38, Energy=    -286.8364125580
C        1.4761231277    0.3280423441   -2.3266216925
C        1.1388951105   -0.9849819039   -2.3345010603
C       -0.2793902933   -1.3871807806   -2.4838108087
C       -1.1357998459    0.3529591221   -1.1533891075
C       -0.6434658072    1.2121965401   -2.2770504227
N        0.5794745890    1.3423558197   -2.6636762077
H        2.5148229575    0.6477984918   -2.2938086933
H        1.8724345721   -1.7233128722   -2.0184718770
H       -0.6564070145   -1.5206941481   -3.4998269576
H       -1.1308102287    0.8006692575   -0.1543304330
H       -1.4043818932    1.7594865699   -2.8395634646
C       -1.1749807886   -0.9757913861   -1.3368210582
H       -1.4452965234   -1.6816622991   -0.5451252543
13   
From optimize.out: Frame 9 / 38, Energy=    -286.8456768756
C        1.4762082521    0.3210271059   -2.3375153661
C        1.1431165774   -0.9911753640   -2.3411612600
C       -0.2669824195   -1.4128665605   -2.4767581767
C       -1.1468397570    0.3570291941   -1.1645829967
C       -0.6434840748    1.2377377302   -2.2619449485
N        0.5809214007    1.3429750946   -2.6576568580
H        2.5165251354    0.6312764861   -2.2979047889
H        1.8943844575   -1.7250793567   -2.0569364629
H       -0.6685594318   -1.5934296446   -3.4743618453
H       -1.2349300238    0.8050182453   -0.1707973589
H       -1.3825816377    1.8354053560   -2.8013462094
C       -1.1361172815   -0.9720850727   -1.3439841538
H       -1.4204432350   -1.6659484585   -0.5420466123
13   
From optimize.out: Frame 10 / 38, Energy=    -286.8536594476
C        1.4734811463    0.3153090469   -2.3490820998
C        1.1501292977   -0.9986064885   -2.3510390825
C       -0.2505507895   -1.4451313623   -2.4693838844
C       -1.1569316749    0.3634362456   -1.1752431319
C       -0.6396991542    1.2620363710   -2.2443125253
N        0.5786380886    1.3427638805   -2.6483686307
H        2.5140736525    0.6223594257   -2.3084220553
H        1.9208823167   -1.7253853876   -2.1013096383
H       -0.6683926875   -1.6775897079   -3.4483670440
H       -1.3331408943    0.8086444022   -0.1928342014
H       -1.3549081416    1.9128866391   -2.7524883447
C       -1.1079532329   -0.9651486439   -1.3473227138
H       -1.4144099649   -1.6456896655   -0.5388236854
13   
From optimize.out: Frame 11 / 38, Energy=    -286.8607743748
C        1.4753300936    0.3110144142   -2.3632719681
C        1.1562486665   -1.0039957932   -2.3561670516
C       -0.2385388145   -1.4628537257   -2.4540827210
C       -1.1679883054    0.3687166141   -1.1875121266
C       -0.6364160808    1.2864498829   -2.2258734880
N        0.5843555800    1.3447869090   -2.6424932137
H        2.5177463951    0.6133981615   -2.3268246715
H        1.9423671453   -1.7266532333   -2.1422181558
H       -0.6684537784   -1.7572351643   -3.4104614172
H       -1.4299618933    0.8078723072   -0.2223841925
H       -1.3313142722    1.9837804383   -2.6998286621
C       -1.0828927948   -0.9602621266   -1.3511785259
H       -1.4092639792   -1.6351339290   -0.5447008434
13   
From optimize.out: Frame 12 / 38, Energy=    -286.8671147326
C        1.4743646727    0.3092699723   -2.3764881084
C        1.1633335664   -1.0085423029   -2.3660415776
C       -0.2225780148   -1.4898066757   -2.4396322318
C       -1.1766850075    0.3766147908   -1.1973728785
C       -0.6288942472    1.3086222312   -2.2056319090
N        0.5860219927    1.3480637476   -2.6325309702
H        2.5174257045    0.6107681501   -2.3482701746
H        1.9659333476   -1.7243594228   -2.1914843638
H       -0.6565339613   -1.8499305103   -3.3708193113
H       -1.5178973199    0.8080009950   -0.2541695477
H       -1.3015281848    2.0516730395   -2.6402738977
C       -1.0673196170   -0.9522948354   -1.3529091283
H       -1.4244249696   -1.6181944243   -0.5513729385
13   
From optimize.out: Frame 13 / 38, Energy=    -286.8728607612
C        1.4756655489    0.3093513677   -2.3908735814
C        1.1685165477   -1.0104786071   -2.3746819285
C       -0.2095376061   -1.5055190744   -2.4213413574
C       -1.1855940931    0.3838706498   -1.2072190970
C       -0.6203230908    1.3313616122   -2.1839509700
N        0.5921684189    1.3545830178   -2.6231116418
H        2.5203119601    0.6078157683   -2.3741136741
H        1.9835677837   -1.7216364409   -2.2393591172
H       -0.6421699864   -1.9425895110   -3.3192327283
H       -1.5991665778    0.8049789741   -0.2891486182
H       -1.2739984674    2.1117807449   -2.5807655207
C       -1.0553776099   -0.9456657240   -1.3565956888
H       -1.4428448656   -1.6079680222   -0.5666031141
13   
From optimize.out: Frame 14 / 38, Energy=    -286.8781983225
C        1.4770370698    0.3117603813   -2.4039418981
C        1.1725740484   -1.0105115661   -2.3857468359
C       -0.1958514962   -1.5225153648   -2.4020760809
C       -1.1933882564    0.3915974915   -1.2158830103
C       -0.6107359372    1.3518248468   -2.1627089851
N        0.5982478830    1.3631594922   -2.6117602026
H        2.5230552953    0.6073769584   -2.4004082929
H        1.9983434527   -1.7168123049   -2.2919180567
H       -0.6209953549   -2.0388753767   -3.2601478949
H       -1.6702410575    0.8020520826   -0.3244562602
H       -1.2456339853    2.1661747478   -2.5203363952
C       -1.0493055100   -0.9386058152   -1.3611549329
H       -1.4718881896   -1.5967408178   -0.5864581918
13   
From optimize.out: Frame 15 / 38, Energy=    -286.8833356023
C        1.4788590115    0.3146223064   -2.4172525053
C        1.1752694481   -1.0100531288   -2.3982174195
C       -0.1821175518   -1.5354941569   -2.3812559892
C       -1.2014521494    0.3992805054   -1.2237330831
C       -0.6000120879    1.3728498703   -2.1389387608
N        0.6054851519    1.3733001128   -2.5983157952
H        2.5263306987    0.6063998958   -2.4287670287
H        2.0088865423   -1.7123605918   -2.3463252219
H       -0.5949848897   -2.1313694671   -3.1920973075
H       -1.7369087065    0.7984854036   -0.3613767808
H       -1.2186994037    2.2138098378   -2.4623604234
C       -1.0454087467   -0.9321994462   -1.3669177206
H       -1.5040293548   -1.5873863860   -0.6114390016
13   
From optimize.out: Frame 16 / 38, Energy=    -286.8883692128
C        1.4811281693    0.3187877890   -2.4306095071
C        1.1765497252   -1.0083973258   -2.4103524622
C       -0.1688837588   -1.5469180431   -2.3586025340
C       -1.2096278196    0.4059606724   -1.2319636422
C       -0.5893268463    1.3905894634   -2.1177382540
N        0.6126575718    1.3833125741   -2.5869809050
H        2.5297247109    0.6068155821   -2.4585235451
H        2.0155390925   -1.7069048311   -2.4003967921
H       -0.5641838275   -2.2186793648   -3.1166879619
H       -1.7963844858    0.7944347902   -0.3990415713
H       -1.1901172457    2.2586769803   -2.4015216350
C       -1.0458294431   -0.9270461458   -1.3736505713
H       -1.5400278810   -1.5807473857   -0.6409276564
13   
From optimize.out: Frame 17 / 38, Energy=    -286.8933338348
C        1.4844988006    0.3218076586   -2.4448565042
C        1.1779532610   -1.0080778424   -2.4255711429
C       -0.1537948664   -1.5556780189   -2.3342397741
C       -1.2187291820    0.4129585595   -1.2384535918
C       -0.5774124096    1.4095101777   -2.0910107691
N        0.6211845008    1.3941218399   -2.5705955574
H        2.5339659458    0.6058447638   -2.4910270741
H        2.0191654544   -1.7039748917   -2.4586480418
H       -0.5287647712   -2.2978444388   -3.0344242314
H       -1.8576478169    0.7910753219   -0.4404870762
H       -1.1650842211    2.2960628124   -2.3449035326
C       -1.0458545349   -0.9225696585   -1.3794636708
H       -1.5782621986   -1.5733515282   -0.6733160712
13   
From optimize.out: Frame 18 / 38, Energy=    -286.8981830716
C        1.4873883154    0.3269065024   -2.4596120952
C        1.1771034328   -1.0050511334   -2.4370542809
C       -0.1416213463   -1.5626601979   -2.3088697641
C       -1.2272710590    0.4181868932   -1.2463814089
C       -0.5653423239    1.4234370035   -2.0703066043
N        0.6282724044    1.4039717828   -2.5617576842
H        2.5370337295    0.6072145328   -2.5255359550
H        2.0184123274   -1.6982255953   -2.5094491523
H       -0.4904315230   -2.3711903126   -2.9459910054
H       -1.9080556135    0.7867338262   -0.4798117858
H       -1.1346544247    2.3331702768   -2.2816104708
C       -1.0518606343   -0.9199868046   -1.3881986052
H       -1.6177553229   -1.5726220187   -0.7124182253
13   
From optimize.out: Frame 19 / 38, Energy=    -286.9028883150
C        1.4913875412    0.3296216284   -2.4754313571
C        1.1774196116   -1.0041391758   -2.4536085523
C       -0.1272024936   -1.5673495717   -2.2832302476
C       -1.2360155022    0.4237059878   -1.2514000103
C       -0.5526821540    1.4391049291   -2.0416484626
N        0.6368009298    1.4145441762   -2.5449008240
H        2.5407883924    0.6061680342   -2.5616019833
H        2.0154863818   -1.6962812434   -2.5649643500
H       -0.4478048846   -2.4354580791   -2.8528537869
H       -1.9610227895    0.7835778771   -0.5229904764
H       -1.1112374002    2.3618477407   -2.2256896996
C       -1.0549767368   -0.9180644171   -1.3952972066
H       -1.6597229339   -1.5673931312   -0.7533800807
13   
From optimize.out: Frame 20 / 38, Energy=    -286.9073479898
C        1.4935012280    0.3340926435   -2.4929646197
C        1.1755650731   -0.9999429727   -2.4655065378
C       -0.1168684683   -1.5715652335   -2.2577421943
C       -1.2426614990    0.4280828978   -1.2566118173
C       -0.5391862204    1.4503922609   -2.0175602921
N        0.6431907691    1.4246142426   -2.5362632366
H        2.5418801387    0.6067329715   -2.6008384636
H        2.0096069506   -1.6908192992   -2.6086437257
H       -0.4034244335   -2.4941574485   -2.7549209394
H       -2.0028130003    0.7799213173   -0.5616573502
H       -1.0821083804    2.3893715237   -2.1637517798
C       -1.0631119618   -0.9177910838   -1.4069262232
H       -1.7023522337   -1.5690470641   -0.8036098578
13   
From optimize.out: Frame 21 / 38, Energy=    -286.9114846668
C        1.4958324234    0.3362150400   -2.5129954484
C        1.1753364074   -0.9973462939   -2.4804125559
C       -0.1048987930   -1.5737133910   -2.2296965584
C       -1.2489291336    0.4319089172   -1.2598486146
C       -0.5265014564    1.4609880427   -1.9888700175
N        0.6501940598    1.4345345148   -2.5239361319
H        2.5424096512    0.6054371690   -2.6444935604
H        2.0034137238   -1.6885575086   -2.6510671895
H       -0.3542919819   -2.5418426375   -2.6547075357
H       -2.0441805694    0.7778666062   -0.6032330813
H       -1.0577165302    2.4114878498   -2.1024871935
C       -1.0700325502   -0.9199206629   -1.4174145176
H       -1.7494172890   -1.5671728907   -0.8578346328
13   
From optimize.out: Frame 22 / 38, Energy=    -286.9151432789
C        1.4946174604    0.3392050552   -2.5335313447
C        1.1735810634   -0.9913549552   -2.4917516831
C       -0.0983403301   -1.5786201842   -2.2052439552
C       -1.2512409821    0.4365685253   -1.2604598345
C       -0.5117858624    1.4683987554   -1.9599444199
N        0.6558734432    1.4445324505   -2.5149146406
H        2.5386984383    0.6047662057   -2.6893895520
H        1.9973619377   -1.6815339643   -2.6830743452
H       -0.3090774072   -2.5862699625   -2.5519989210
H       -2.0770255540    0.7758527966   -0.6399402204
H       -1.0306887331    2.4289296244   -2.0435561144
C       -1.0777893071   -0.9216239655   -1.4322629751
H       -1.7929662050   -1.5689656263   -0.9209290312
13   
From optimize.out: Frame 23 / 38, Energy=    -286.9182100778
C        1.4945675251    0.3388697920   -2.5586295473
C        1.1748038689   -0.9901228958   -2.5043773613
C       -0.0858248036   -1.5763553898   -2.1688475075
C       -1.2586788532    0.4391784062   -1.2661414134
C       -0.5032306653    1.4731180214   -1.9338459383
N        0.6630551116    1.4538295552   -2.5055576393
H        2.5344751068    0.6017525410   -2.7453789291
H        1.9913030185   -1.6831505917   -2.7115179503
H       -0.2527076379   -2.6119861132   -2.4505072973
H       -2.1111990418    0.7780258633   -0.6837246289
H       -1.0042628403    2.4465524668   -1.9677490774
C       -1.0884319178   -0.9304829196   -1.4449116710
H       -1.8426509089   -1.5693439805   -0.9858080765
13   
From optimize.out: Frame 24 / 38, Energy=    -286.9205480459
C        1.4883680254    0.3403377889   -2.5767307983
C        1.1741085039   -0.9842275627   -2.5135881885
C       -0.0822000735   -1.5863756842   -2.1474969702
C       -1.2584656992    0.4455823066   -1.2662917019
C       -0.4902554161    1.4767174354   -1.9001257643
N        0.6702594080    1.4632473233   -2.4890884778
H        2.5232457559    0.5998673783   -2.7942324799
H        1.9868769911   -1.6744610788   -2.7406916330
H       -0.2096735339   -2.6471317976   -2.3451815487
H       -2.1372520536    0.7778477239   -0.7209302922
H       -0.9802399849    2.4562458583   -1.9149218597
C       -1.0929300064   -0.9326263586   -1.4630743236
H       -1.8806239549   -1.5651385775   -1.0546429994
13   
From optimize.out: Frame 25 / 38, Energy=    -286.9220472076
C        1.4854289795    0.3413958905   -2.5994654403
C        1.1754243739   -0.9834893189   -2.5175667270
C       -0.0686655594   -1.5872893334   -2.1024741905
C       -1.2701750437    0.4504913509   -1.2794020537
C       -0.4834267912    1.4767700098   -1.8757638301
N        0.6841988118    1.4738488731   -2.4709202223
H        2.5110412355    0.5972590746   -2.8641598653
H        1.9785038074   -1.6761497344   -2.7674190912
H       -0.1538538345   -2.6617735154   -2.2449406182
H       -2.1698182672    0.7830069939   -0.7699249626
H       -0.9475222261    2.4684454965   -1.8330743374
C       -1.1081704776   -0.9424107321   -1.4783078982
H       -1.9217470465   -1.5702202999   -1.1235778006
13   
From optimize.out: Frame 26 / 38, Energy=    -286.9228373474
C        1.4766099136    0.3408251448   -2.6100054454
C        1.1783143762   -0.9863544364   -2.5215288743
C       -0.0560324397   -1.5973953038   -2.0755765630
C       -1.2840633635    0.4548457102   -1.3094437110
C       -0.4826394533    1.4808592521   -1.8484921934
N        0.7009870869    1.4816268339   -2.4316617675
H        2.4879643336    0.5921582528   -2.9298204205
H        1.9725441080   -1.6751179836   -2.8054613385
H       -0.1011588157   -2.6823089076   -2.1378612690
H       -2.1966178183    0.7837057760   -0.8209431244
H       -0.9187375076    2.4819318365   -1.7601334020
C       -1.1135930666   -0.9481905948   -1.5015389982
H       -1.9523593915   -1.5567008249   -1.1745299301
13   
From optimize.out: Frame 27 / 38, Energy=    -286.9232017454
C        1.4713940010    0.3491403649   -2.6336053573
C        1.1747749415   -0.9823046655   -2.5142448501
C       -0.0439737239   -1.5947487917   -2.0212989074
C       -1.3016420287    0.4611115818   -1.3352911278
C       -0.4612954649    1.4778801134   -1.8120593511
N        0.7359925287    1.4942441672   -2.3921095355
H        2.4675624470    0.5896015531   -3.0105117479
H        1.9553464770   -1.6701714299   -2.8352074705
H       -0.0621017749   -2.6830621533   -2.0474297137
H       -2.2336792917    0.7875730093   -0.8829929402
H       -0.8833066111    2.4821841052   -1.6963472264
C       -1.1379103230   -0.9557925111   -1.5181208632
H       -1.9699432150   -1.5857705881   -1.2277779463
13   
From optimize.out: Frame 28 / 38, Energy=    -286.9237275872
C        1.4668115631    0.3506708534   -2.6334395288
C        1.1726345720   -0.9842961731   -2.5198440359
C       -0.0373126648   -1.5999372058   -2.0181686621
C       -1.3162245595    0.4611979735   -1.3731081502
C       -0.4688779772    1.4800458540   -1.8152140357
N        0.7486932927    1.4927738372   -2.3647818544
H        2.4555314881    0.5871762239   -3.0311234666
H        1.9542380174   -1.6687646072   -2.8438430134
H       -0.0473637819   -2.6884376760   -2.0199601445
H       -2.2411612001    0.7864388845   -0.9045681394
H       -0.8676624147    2.4874830849   -1.6604317065
C       -1.1386011738   -0.9556426686   -1.5279537773
H       -1.9694871994   -1.5788236255   -1.2145605226
13   
From optimize.out: Frame 29 / 38, Energy=    -286.9239502348
C        1.4616280537    0.3528248315   -2.6294981731
C        1.1728961273   -0.9882506900   -2.5176136378
C       -0.0303504578   -1.5968998953   -2.0086893066
C       -1.3233574717    0.4577657696   -1.4067086796
C       -0.4665173870    1.4805516927   -1.7950137348
N        0.7599615605    1.4872255359   -2.3361216068
H        2.4377927868    0.5852993531   -3.0588639868
H        1.9523021775   -1.6698983095   -2.8515855540
H       -0.0428885901   -2.6847591529   -2.0076777265
H       -2.2470810444    0.7817674984   -0.9338632764
H       -0.8636216940    2.4874939895   -1.6446362070
C       -1.1328329080   -0.9553793761   -1.5358094450
H       -1.9667131907   -1.5678564915   -1.2009157030
13   
From optimize.out: Frame 30 / 38, Energy=    -286.9240973401
C        1.4596079119    0.3578685614   -2.6385512082
C        1.1681137816   -0.9828164601   -2.5260189260
C       -0.0317941942   -1.5985913251   -2.0112675689
C       -1.3315126864    0.4592827215   -1.4144088940
C       -0.4667225597    1.4764028790   -1.7978820263
N        0.7726582705    1.4869412864   -2.3248997891
H        2.4421681882    0.5819109460   -3.0573302323
H        1.9524131768   -1.6608663129   -2.8537674067
H       -0.0425557477   -2.6862107267   -2.0024509663
H       -2.2582182006    0.7864132491   -0.9486849625
H       -0.8532143092    2.4852669667   -1.6367221087
C       -1.1377606152   -0.9576344659   -1.5320406442
H       -1.9619650539   -1.5780825642   -1.1829723043
13   
From optimize.out: Frame 31 / 38, Energy=    -286.9241801772
C        1.4631471777    0.3590111551   -2.6328477801
C        1.1691707216   -0.9831648701   -2.5219349790
C       -0.0283138010   -1.5982854292   -2.0029844274
C       -1.3299145613    0.4622704149   -1.4089244919
C       -0.4670750760    1.4757055287   -1.7963413656
N        0.7741014702    1.4877203778   -2.3241540800
H        2.4416025482    0.5835567257   -3.0616364936
H        1.9456468782   -1.6646217236   -2.8604480249
H       -0.0437736344   -2.6860266463   -2.0106752200
H       -2.2641084730    0.7886369281   -0.9581390672
H       -0.8542347189    2.4851563480   -1.6398470889
C       -1.1351057460   -0.9579096768   -1.5250717463
H       -1.9599248232   -1.5821643771   -1.1839922726
13   
From optimize.out: Frame 32 / 38, Energy=    -286.9242581234
C        1.4599845476    0.3610285265   -2.6368972677
C        1.1673062989   -0.9843940467   -2.5226703903
C       -0.0302378075   -1.5948036996   -2.0062110225
C       -1.3247771894    0.4632588211   -1.4028352383
C       -0.4676377727    1.4762531278   -1.7930510648
N        0.7715358114    1.4893339143   -2.3335012964
H        2.4425902140    0.5820889663   -3.0586852458
H        1.9460200350   -1.6673122670   -2.8529329815
H       -0.0470963950   -2.6825771023   -2.0157030451
H       -2.2682687788    0.7858419105   -0.9695358397
H       -0.8507916230    2.4866385739   -1.6337510147
C       -1.1312409790   -0.9600395992   -1.5208351925
H       -1.9561683995   -1.5854323703   -1.1803874382
13   
From optimize.out: Frame 33 / 38, Energy=    -286.9242986553
C        1.4599410728    0.3617505207   -2.6341552150
C        1.1701876727   -0.9857120956   -2.5191900650
C       -0.0279753951   -1.5962087487   -2.0062035513
C       -1.3245678366    0.4634935338   -1.4036421679
C       -0.4687177189    1.4757153976   -1.7896771549
N        0.7725666533    1.4869939590   -2.3327912437
H        2.4428303840    0.5818993732   -3.0557746071
H        1.9455203438   -1.6657134597   -2.8629306232
H       -0.0491898486   -2.6837072778   -2.0215503621
H       -2.2729638395    0.7849009593   -0.9797958547
H       -0.8514010724    2.4866653597   -1.6355495515
C       -1.1293295478   -0.9598243670   -1.5160112561
H       -1.9556829058   -1.5803683993   -1.1697253850
13   
From optimize.out: Frame 34 / 38, Energy=    -286.9243147914
C        1.4581843329    0.3624583451   -2.6346304678
C        1.1688308827   -0.9862455074   -2.5199619115
C       -0.0276143248   -1.5971170087   -2.0037594165
C       -1.3282680854    0.4642181154   -1.4149849899
C       -0.4685399252    1.4756655067   -1.7873144321
N        0.7777394740    1.4863104376   -2.3262537640
H        2.4374352376    0.5822545373   -3.0655290064
H        1.9448264105   -1.6640777196   -2.8664034574
H       -0.0453120289   -2.6850146795   -2.0087528923
H       -2.2779823737    0.7859306440   -0.9938415850
H       -0.8451904189    2.4864393914   -1.6192396956
C       -1.1295616365   -0.9603188493   -1.5186247770
H       -1.9533295824   -1.5806184578   -1.1677006418
13   
From optimize.out: Frame 35 / 38, Energy=    -286.9243263042
C        1.4579759792    0.3618531905   -2.6365440045
C        1.1679111785   -0.9868295717   -2.5211976606
C       -0.0289061089   -1.5980770816   -2.0074430556
C       -1.3284862117    0.4639864481   -1.4137576535
C       -0.4684048296    1.4769038738   -1.7883785943
N        0.7742757428    1.4862076342   -2.3318777768
H        2.4395969924    0.5828369105   -3.0618361123
H        1.9472100018   -1.6648764512   -2.8602830411
H       -0.0463095709   -2.6860992730   -2.0121065807
H       -2.2768393409    0.7861057511   -0.9899006950
H       -0.8456040015    2.4873638915   -1.6181854572
C       -1.1297599979   -0.9592579581   -1.5188138966
H       -1.9514418712   -1.5802326088   -1.1666725094
13   
From optimize.out: Frame 36 / 38, Energy=    -286.9243317825
C        1.4582256183    0.3613308506   -2.6378061451
C        1.1689987747   -0.9869530281   -2.5210016770
C       -0.0286036053   -1.5974551573   -2.0055824420
C       -1.3294894534    0.4640768312   -1.4148057675
C       -0.4678602949    1.4768854640   -1.7876551995
N        0.7735546153    1.4863391002   -2.3325744949
H        2.4403333471    0.5828024762   -3.0618540605
H        1.9467053636   -1.6655535383   -2.8630827084
H       -0.0443085574   -2.6855597776   -2.0092138789
H       -2.2776590477    0.7866812566   -0.9912191480
H       -0.8452038558    2.4871196301   -1.6152432579
C       -1.1308786397   -0.9595661480   -1.5189538876
H       -1.9525963026   -1.5802632045   -1.1680043702
13   
From optimize.out: Frame 37 / 38, Energy=    -286.9243343203
C        1.4586590609    0.3611615892   -2.6374562491
C        1.1694802539   -0.9865177239   -2.5203166140
C       -0.0289553896   -1.5975770828   -2.0052929535
C       -1.3301632840    0.4642071498   -1.4154949336
C       -0.4669345580    1.4766711888   -1.7869513313
N        0.7730586845    1.4863674984   -2.3329685735
H        2.4398009245    0.5832449637   -3.0634099772
H        1.9465036698   -1.6656109075   -2.8631761111
H       -0.0441425809   -2.6857120477   -2.0085621628
H       -2.2787022754    0.7867759860   -0.9928878555
H       -0.8441275994    2.4869292040   -1.6135689092
C       -1.1310001805   -0.9595604497   -1.5190845968
H       -1.9522587638   -1.5804946131   -1.1678267700
