13   
From optimize.out: Frame 1 / 3, Energy=    -286.8584590534
C        1.5366063709    0.4306394942   -0.3797269952
C        0.8434483317   -0.7968071007    0.0803704746
C       -0.5858167304   -1.0277566174   -0.3817094348
C       -1.1173886402    0.3114209015    0.1006779158
C       -0.4274396037    1.5421362482   -0.3551205131
N        0.8839183098    1.5727556656   -0.5858436800
H        2.6088040851    0.4182818606   -0.5653988334
H        1.4549523775   -1.6858761573    0.2258393024
H       -1.0688158931   -1.8723541415   -0.8530182914
H       -2.1917641923    0.3765177470    0.2642255122
H       -0.9903480078    2.4599444081   -0.5140737588
C       -0.3511969638   -0.6397158460    1.0056778007
H       -0.5949594442   -1.0891864617    1.9581005007
13   
From optimize.out: Frame 2 / 3, Energy=    -286.8584616693
C        1.5360581838    0.4300917552   -0.3803367058
C        0.8437398609   -0.7972775747    0.0801986016
C       -0.5859840657   -1.0274911740   -0.3819403129
C       -1.1171137319    0.3117013152    0.1012930658
C       -0.4277233869    1.5419629907   -0.3563521428
N        0.8835531480    1.5723176511   -0.5867061993
H        2.6089057712    0.4191080093   -0.5624229367
H        1.4551752420   -1.6865592210    0.2246630577
H       -1.0692904091   -1.8717942217   -0.8535197564
H       -2.1914735373    0.3770133129    0.2647657020
H       -0.9907430647    2.4598855674   -0.5142812157
C       -0.3510370587   -0.6403404668    1.0056614644
H       -0.5940669521   -1.0886179431    1.9589773776
