13   
From optimize.out: Frame 2 / 3, Energy=    -286.8584653799
C        1.5751877236    0.4456964295   -0.0859246270
C        0.8224775221   -0.8153030354    0.1174561384
C       -0.5187162062   -0.9686041869   -0.5830774992
C       -1.1193980815    0.3160409781   -0.0361673903
C       -0.3701428071    1.5789271588   -0.2388473708
N        0.9609130039    1.6141495743   -0.2598457188
H        2.6634259738    0.4386562133   -0.0979529891
H        1.4063163589   -1.7246875642    0.2497027670
H       -0.9207244973   -1.7424615602   -1.2221101752
H       -2.2063341362    0.3789713473   -0.0331540677
H       -0.9040697882    2.5169144806   -0.3782928638
C       -0.5024268939   -0.7468623541    0.8584352223
H       -0.8865081718   -1.2914374808    1.7097785743
13   
From optimize.out: Frame 1 / 2, Energy=    -286.8383302656
C        1.2023640827    0.2879928461    0.3827052022
C        0.6317355245   -1.1045674653   -0.1506886520
C       -0.6176198843   -0.9072132295   -0.8726001464
C       -1.0788684607    0.1774554208    0.0985442753
C       -0.4490304279    1.4618269149   -0.4273401279
N        0.8286478704    1.4942236175   -0.3122467265
H        2.2050873932    0.2369218955    0.7946754324
H        1.3122602734   -1.9493503009   -0.1903344472
H       -0.9096619327   -1.1112908211   -1.9000569403
H       -2.1279224688    0.2118404987    0.4006459437
H       -0.9938951028    2.2279686882   -0.9767549243
C        0.0451131463   -0.3542314655    1.0595977173
H       -0.0482100134   -0.6715765993    2.0938533938
