13   
Frame   0 IRC: Energy =  -286.8792930000 ; +0.0000 kcal/mol
C        1.5758624978    0.4527193644   -0.0524852427
C        0.8243225195   -0.8156766714    0.1049358752
C       -0.5142214665   -0.9607802064   -0.5986270279
C       -1.1207515238    0.3151218051   -0.0314326887
C       -0.3743500131    1.5783697681   -0.2436122342
N        0.9579280578    1.6192493267   -0.2360078737
H        2.6620976006    0.4571557914    0.0011031635
H        1.4104144824   -1.7254489639    0.2208635463
H       -0.9157871709   -1.7293673214   -1.2431378866
H       -2.2071341972    0.3783825191   -0.0254864027
H       -0.9090022993    2.5063868469   -0.4328187474
C       -0.5020998447   -0.7568194346    0.8492679420
H       -0.8872786424   -1.3192928234    1.6874375763
