13   
Frame   0 IRC: Energy =  -286.8792930000 ; +0.0000 kcal/mol
C        1.5758624978    0.4527193644   -0.0524852427
C        0.8243225195   -0.8156766714    0.1049358752
C       -0.5142214665   -0.9607802064   -0.5986270279
C       -1.1207515238    0.3151218051   -0.0314326887
C       -0.3743500131    1.5783697681   -0.2436122342
N        0.9579280578    1.6192493267   -0.2360078737
H        2.6620976006    0.4571557914    0.0011031635
H        1.4104144824   -1.7254489639    0.2208635463
H       -0.9157871709   -1.7293673214   -1.2431378866
H       -2.2071341972    0.3783825191   -0.0254864027
H       -0.9090022993    2.5063868469   -0.4328187474
C       -0.5020998447   -0.7568194346    0.8492679420
H       -0.8872786424   -1.3192928234    1.6874375763
13   
Frame   1 IRC: Energy =  -286.8786613145 ; +0.3964 kcal/mol
C        1.5752003252    0.4548806041   -0.0356022314
C        0.8246638133   -0.8189166231    0.0712078232
C       -0.5283371691   -0.9499993197   -0.6006295884
C       -1.1194319015    0.3202896496    0.0001956802
C       -0.3737050476    1.5758376069   -0.2615630637
N        0.9570660243    1.6186257206   -0.2358642561
H        2.6527382022    0.4704631441    0.1129571065
H        1.4095532499   -1.7326370383    0.1536657863
H       -0.9501493452   -1.7089136111   -1.2438316028
H       -2.2046787430    0.3885154057    0.0398476565
H       -0.9069122757    2.4816841887   -0.5393616929
C       -0.4849466062   -0.7630056901    0.8499459760
H       -0.8510605266   -1.3368240373    1.6890324067
13   
Frame   2 IRC: Energy =  -286.8773377406 ; +1.2269 kcal/mol
C        1.5739741244    0.4573753646   -0.0225057187
C        0.8245082688   -0.8220187518    0.0314316037
C       -0.5431066814   -0.9418783400   -0.6050762487
C       -1.1161579716    0.3253186140    0.0224859122
C       -0.3726617678    1.5729051883   -0.2829607895
N        0.9561004927    1.6172864936   -0.2352720185
H        2.6292468786    0.4801497591    0.2384191125
H        1.4086568076   -1.7387769466    0.0797595364
H       -0.9881881455   -1.6987055167   -1.2351038429
H       -2.1993653879    0.3979240510    0.0964252562
H       -0.9034475265    2.4573964940   -0.6283677036
C       -0.4641765647   -0.7646352590    0.8472632445
H       -0.8053825266   -1.3423411505    1.6935016563
13   
Frame   3 IRC: Energy =  -286.8750187867 ; +2.6821 kcal/mol
C        1.5698251646    0.4575161430   -0.0162962496
C        0.8249847870   -0.8251235971   -0.0144400696
C       -0.5578412637   -0.9394502868   -0.6119429203
C       -1.1110780822    0.3285582913    0.0299993903
C       -0.3706229223    1.5725387514   -0.3079787499
N        0.9546379241    1.6177293206   -0.2346401335
H        2.5855869050    0.4813484716    0.3740266988
H        1.4090278862   -1.7431571915    0.0026873119
H       -1.0266530135   -1.7069882509   -1.2116504492
H       -2.1909480087    0.4057439122    0.1355889102
H       -0.8987149152    2.4446460900   -0.6858045476
C       -0.4395354282   -0.7603689599    0.8396597654
H       -0.7486690332   -1.3329926939    1.7007910432
13   
Frame   4 IRC: Energy =  -286.8714850773 ; +4.8995 kcal/mol
C        1.5657028862    0.4573771072   -0.0116241253
C        0.8254642600   -0.8277921305   -0.0633253242
C       -0.5708575238   -0.9405322438   -0.6205257985
C       -1.1050822286    0.3314185055    0.0264112346
C       -0.3670480866    1.5743163782   -0.3314886722
N        0.9521016327    1.6210484271   -0.2291241163
H        2.5222996335    0.4710389140    0.5049541643
H        1.4112211711   -1.7449289587   -0.0730341338
H       -1.0617834392   -1.7299008981   -1.1739056837
H       -2.1811812175    0.4105348887    0.1600468091
H       -0.8923817877    2.4440613827   -0.7226215342
C       -0.4124292248   -0.7515775342    0.8283939750
H       -0.6860260755   -1.3150638380    1.7058432053
13   
Frame   5 IRC: Energy =  -286.8664477074 ; +8.0605 kcal/mol
C        1.5578866317    0.4583111258   -0.0060415359
C        0.8283338072   -0.8289117080   -0.1142327734
C       -0.5813090092   -0.9419912986   -0.6335312694
C       -1.0981299361    0.3337984453    0.0149513824
C       -0.3657103617    1.5819730820   -0.3516212861
N        0.9501771394    1.6264164387   -0.2127590021
H        2.4486635270    0.4466659649    0.6224012822
H        1.4120397341   -1.7463484841   -0.1428416736
H       -1.0912846098   -1.7611062232   -1.1198481943
H       -2.1712256758    0.4070446239    0.1745084993
H       -0.8854290737    2.4507085345   -0.7470658087
C       -0.3826753474   -0.7361983636    0.8131657328
H       -0.6213368256   -1.2903621375    1.7029146469
13   
Frame   6 IRC: Energy =  -286.8594378819 ; +12.4593 kcal/mol
C        1.5460026598    0.4564729806    0.0097641984
C        0.8331285265   -0.8333301918   -0.1670576505
C       -0.5800025848   -0.9322315355   -0.6539191031
C       -1.0901294240    0.3391563672   -0.0018482665
C       -0.3669764258    1.5936634932   -0.3671282411
N        0.9416409300    1.6316134845   -0.1850661535
H        2.3737554980    0.4053890333    0.7162541571
H        1.4076252468   -1.7591136059   -0.1996046634
H       -1.1113487702   -1.7870519302   -1.0476434676
H       -2.1585221125    0.3886234335    0.1853880581
H       -0.8905352596    2.4622919941   -0.7664274825
C       -0.3464565962   -0.7085406301    0.7893877856
H       -0.5581816879   -1.2569428929    1.6879008290
13   
Frame   7 IRC: Energy =  -286.8486930239 ; +19.2018 kcal/mol
C        1.5017479343    0.4413959459    0.0566666043
C        0.8394351403   -0.8538688787   -0.2169084896
C       -0.5655003565   -0.9037471473   -0.7018395729
C       -1.0790187043    0.3457165416   -0.0166400284
C       -0.3811006075    1.6063367478   -0.3776150078
N        0.9268275254    1.6220610794   -0.1655078272
H        2.3162056790    0.3627871448    0.7723102271
H        1.4064795631   -1.7893659772   -0.2355613852
H       -1.1138127480   -1.7890569273   -0.9712319625
H       -2.1427173436    0.3662663272    0.1938102919
H       -0.9075673509    2.4695756363   -0.7796337821
C       -0.2974650503   -0.6624228877    0.7754567344
H       -0.5035136809   -1.2156776048    1.6666941980
13   
Frame   8 IRC: Energy =  -286.8288340005 ; +31.6635 kcal/mol
C        1.4288584798    0.4171849382    0.1338978802
C        0.8268378611   -0.8890331022   -0.2497754513
C       -0.5510425001   -0.8744323301   -0.7949683954
C       -1.0707358681    0.3432918730   -0.0214702653
C       -0.3947594356    1.6072878999   -0.3747905347
N        0.9150370630    1.6099221015   -0.1750759545
H        2.2896534780    0.3441396370    0.7892420306
H        1.4111159648   -1.8107390350   -0.2478864966
H       -1.1136948023   -1.7889285463   -0.9362540680
H       -2.1359052215    0.3575866404    0.1952870567
H       -0.9137279228    2.4661563660   -0.7824415078
C       -0.2200199180   -0.5963556222    0.8003450494
H       -0.4716171784   -1.1860808202    1.6638906568
13   
Frame   9 IRC: Energy =  -286.8147723614 ; +40.4873 kcal/mol (Transition State)
C        1.3608888314    0.3842029370    0.2147370475
C        0.8029466473   -0.9225858841   -0.2686507022
C       -0.5464396782   -0.8563203516   -0.9002552527
C       -1.0684408107    0.3305464622   -0.0205459039
C       -0.3946895337    1.6008584327   -0.3701486028
N        0.8985754950    1.6097510256   -0.1944453544
H        2.2774039794    0.3371636099    0.7946962463
H        1.4137065518   -1.8183740233   -0.2534509810
H       -1.1141775996   -1.7865751144   -0.9252869369
H       -2.1346884365    0.3539994043    0.1947068200
H       -0.9128322946    2.4613165831   -0.7829670870
C       -0.1354724642   -0.5307529265    0.8407376452
H       -0.4467806872   -1.1632301550    1.6708730619
13   
Frame  10 IRC: Energy =  -286.8309105365 ; +30.3605 kcal/mol
C        1.2913396142    0.3423399786    0.3004068657
C        0.7757085316   -0.9458186565   -0.2927301158
C       -0.5461181681   -0.8386138355   -0.9853032031
C       -1.0625054814    0.2959140327   -0.0259369602
C       -0.3917243991    1.5946535530   -0.3708873376
N        0.8839382432    1.6086402191   -0.2078005146
H        2.2614432301    0.3285360242    0.7984465386
H        1.4138390715   -1.8217781609   -0.2614938404
H       -1.1137146916   -1.7745824499   -0.9302883829
H       -2.1305781451    0.3471575130    0.1945716883
H       -0.9117247197    2.4568559050   -0.7849859281
C       -0.0584261411   -0.4594344867    0.8861597955
H       -0.4114769445   -1.1338696361    1.6798413945
13   
Frame  11 IRC: Energy =  -286.8441075657 ; +22.0792 kcal/mol
C        1.2300400525    0.3149916205    0.3762974475
C        0.7583240395   -0.9578630021   -0.3175168426
C       -0.5438695904   -0.8259038970   -1.0261631515
C       -1.0536180127    0.2706501167   -0.0405640487
C       -0.3949711019    1.5845702082   -0.3788108523
N        0.8721542771    1.5972176828   -0.1954920680
H        2.2235736494    0.2988374961    0.8173215417
H        1.4077875826   -1.8265462705   -0.2837866335
H       -1.1207484832   -1.7535381478   -0.9712730929
H       -2.1171743681    0.3222276061    0.1947971067
H       -0.9129635687    2.4467336661   -0.7949720816
C       -0.0135059693   -0.4005036984    0.9117770996
H       -0.3350285069   -1.0708733806    1.7083855756
13   
Frame  12 IRC: Energy =  -286.8505941091 ; +18.0088 kcal/mol
C        1.2134935340    0.3108342985    0.3911744892
C        0.7478202101   -0.9646788490   -0.3181238590
C       -0.5395989504   -0.8136838955   -1.0422445461
C       -1.0544553117    0.2578457806   -0.0417722502
C       -0.3991315457    1.5795945668   -0.3792353994
N        0.8665437469    1.5983626261   -0.1776548857
H        2.1887049452    0.2586229996    0.8669180882
H        1.4000561674   -1.8310529389   -0.3181698905
H       -1.1355072099   -1.7286469816   -1.0612927112
H       -2.1170721343    0.2860949381    0.1927916007
H       -0.9143219136    2.4296072440   -0.8198300152
C       -0.0077236298   -0.3926494289    0.9164272864
H       -0.2488079081   -0.9902503599    1.7910120927
13   
Frame  13 IRC: Energy =  -286.8542571228 ; +15.7103 kcal/mol
C        1.2065964464    0.3047034547    0.4008617744
C        0.7359039298   -0.9795139826   -0.3049562947
C       -0.5329529574   -0.7988505742   -1.0469239789
C       -1.0569952273    0.2440628821   -0.0291502099
C       -0.4033493095    1.5693636277   -0.3758622850
N        0.8614821058    1.5893256427   -0.1759344433
H        2.1676107145    0.2398304733    0.8996048059
H        1.3965089980   -1.8378023793   -0.3448228685
H       -1.1417934366   -1.6919861551   -1.1843578416
H       -2.1221950199    0.2564676558    0.1959788968
H       -0.9170594129    2.4055287732   -0.8447499564
C       -0.0044104184   -0.3940906301    0.9363627503
H       -0.1893464125   -0.9070387882    1.8739496509
13   
Frame  14 IRC: Energy =  -286.8561707437 ; +14.5094 kcal/mol
C        1.2037490089    0.2997983793    0.4076257776
C        0.7223786687   -0.9974377378   -0.2812216365
C       -0.5267007587   -0.7890380442   -1.0394349585
C       -1.0589090319    0.2297386850   -0.0097822075
C       -0.4098472653    1.5544333167   -0.3762284438
N        0.8573650742    1.5763604097   -0.1851217503
H        2.1647660402    0.2352649525    0.9058971432
H        1.3885785444   -1.8509243835   -0.3414587212
H       -1.1369474889   -1.6394077764   -1.3315437079
H       -2.1244095948    0.2326811437    0.2167229461
H       -0.9258082212    2.3767323184   -0.8672418085
C        0.0008598348   -0.3904169287    0.9628120983
H       -0.1550748102   -0.8377843347    1.9389752691
13   
Frame  15 IRC: Energy =  -286.8569120000 ; +14.0443 kcal/mol
C        1.2039720164    0.2988561196    0.4111389332
C        0.7074356071   -1.0165138806   -0.2532961550
C       -0.5269338513   -0.7899512826   -1.0198508376
C       -1.0612228188    0.2169047831    0.0115853723
C       -0.4167170718    1.5389401423   -0.3820499402
N        0.8524837932    1.5634622788   -0.2012095832
H        2.1726988475    0.2383464798    0.8949915062
H        1.3744464320   -1.8696690294   -0.3109750619
H       -1.1205769421   -1.5698313715   -1.4818856868
H       -2.1247070827    0.2169787065    0.2496167177
H       -0.9377284752    2.3473959658   -0.8899981645
C        0.0090361063   -0.3821618245    0.9885979691
H       -0.1321865605   -0.7927570875    1.9833349308
