13   
From optimize.out: Frame 1 / 2, Energy=    -286.8383302656
C        1.2023640827    0.2879928461    0.3827052022
C        0.6317355245   -1.1045674653   -0.1506886520
C       -0.6176198843   -0.9072132295   -0.8726001464
C       -1.0788684607    0.1774554208    0.0985442753
C       -0.4490304279    1.4618269149   -0.4273401279
N        0.8286478704    1.4942236175   -0.3122467265
H        2.2050873932    0.2369218955    0.7946754324
H        1.3122602734   -1.9493503009   -0.1903344472
H       -0.9096619327   -1.1112908211   -1.9000569403
H       -2.1279224688    0.2118404987    0.4006459437
H       -0.9938951028    2.2279686882   -0.9767549243
C        0.0451131463   -0.3542314655    1.0595977173
H       -0.0482100134   -0.6715765993    2.0938533938
