13   
From optimize.out: Frame 1 / 1, Energy=    -286.8365048672
C        1.5440404333    0.5861293134   -0.1642656935
C        0.8932240621   -0.7432938957    0.0274589318
C       -0.4118021088   -0.6570999196   -0.6948209223
C       -1.0183475571    0.6294805270    0.8815113260
C       -0.6032954815    0.9022185475   -0.5702328577
N        0.7481623825    1.5150230143   -0.5423615294
H        2.5983866781    0.7809973401    0.0292120357
H        1.4557634281   -1.6712684557    0.0633870647
H       -0.8129686200   -1.3478195967   -1.4308827970
H       -1.9834849206    0.8770013627    1.3088557403
H       -1.2899603538    1.4326196268   -1.2296229830
C       -0.4463686444   -0.7299036655    0.8394551851
H       -0.6733492982   -1.5740841980    1.4823064987
13   
From optimize.out: Frame 16 / 17, Energy=    -286.8365048754
C        1.5401210536    0.5775398838   -0.1669750439
C        0.8973571326   -0.7437318216    0.0073991400
C       -0.4208459863   -0.6563838064   -0.6772165591
C       -1.0079875855    0.6403387520    0.8961240651
C       -0.5968426170    0.9086036071   -0.5637070541
N        0.7459554433    1.5132333793   -0.5524516415
H        2.5928018589    0.7713771165    0.0284916070
H        1.4459240283   -1.6759170085    0.0689390630
H       -0.7790250377   -1.3463995072   -1.4435868985
H       -1.9934095051    0.8750722604    1.2863541844
H       -1.3027060504    1.4305829878   -1.2073642253
C       -0.4622259557   -0.7242284385    0.8375435159
H       -0.6591167790   -1.5700874046    1.4864498470
13   
From optimize.out: Frame 10 / 17, Energy=    -286.8359926413
C        1.5541034183    0.5651688289   -0.2155417013
C        0.9134083199   -0.7387270308   -0.0483811307
C       -0.4376898341   -0.6444863966   -0.6495804748
C       -0.9944691430    0.6468647282    0.9187344037
C       -0.5813505253    0.9289524459   -0.5426685489
N        0.7632701355    1.5139522722   -0.6039049494
H        2.5889554668    0.8009371694    0.0279225835
H        1.4187423089   -1.6757344652    0.1477626904
H       -0.7343628090   -1.3728588824   -1.4043306023
H       -1.9959507911    0.8609352123    1.2820320269
H       -1.3111579266    1.4464526548   -1.1663038201
C       -0.4944549785   -0.7183895489    0.8372671905
H       -0.6890436419   -1.6130669879    1.4169923326
13   
From optimize.out: Frame 8 / 17, Energy=    -286.8355571031
C        1.5873648547    0.5611089403   -0.2612931488
C        0.9490226300   -0.7387412576   -0.0903942805
C       -0.4449643140   -0.6381044489   -0.6145023555
C       -1.0138148470    0.6440454255    0.9424201089
C       -0.5658768981    0.9394036721   -0.5133519614
N        0.7988261807    1.5156071497   -0.6407918428
H        2.6106243323    0.8445386563   -0.0005017086
H        1.4391065273   -1.6739402890    0.1580444677
H       -0.7117134998   -1.3929607414   -1.3408735843
H       -2.0301360160    0.8483250469    1.2708969131
H       -1.3013015332    1.4586134624   -1.1373583365
C       -0.5481849747   -0.7185912791    0.8565431165
H       -0.7689524423   -1.6493043373    1.3711626122
13   
From optimize.out: Frame 7 / 17, Energy=    -286.8348247887
C        1.6286606486    0.5619093969   -0.2991524782
C        0.9858936503   -0.7406755309   -0.1138227188
C       -0.4529567331   -0.6357581064   -0.5826784547
C       -1.0483660463    0.6391064089    0.9647127142
C       -0.5567856900    0.9448374263   -0.4829929305
N        0.8419809286    1.5197723915   -0.6615360672
H        2.6481591066    0.8832184142   -0.0462154943
H        1.4777027036   -1.6750531883    0.1460562510
H       -0.6977981728   -1.4072101666   -1.2840830837
H       -2.0784274159    0.8377980030    1.2547145795
H       -1.2923450666    1.4676442357   -1.1132138311
C       -0.6041144185   -0.7204257698    0.8775437390
H       -0.8516034944   -1.6751635143    1.3406677747
13   
From optimize.out: Frame 5 / 17, Energy=    -286.8234886508
C        1.6763496879    0.5657744771   -0.3334846862
C        1.0194382516   -0.7441583780   -0.1269850329
C       -0.4663339762   -0.6346017696   -0.5536032846
C       -1.0890642715    0.6328362150    0.9860757094
C       -0.5514779966    0.9501647725   -0.4528180460
N        0.8936251438    1.5250631905   -0.6794583463
H        2.6943538708    0.9231590160   -0.0966425477
H        1.5162225890   -1.6790080696    0.1363378801
H       -0.6929167296   -1.4188744824   -1.2300505621
H       -2.1324439179    0.8248509365    1.2352682695
H       -1.2868621452    1.4774405718   -1.0910170115
C       -0.6564664766   -0.7231432118    0.8962677716
H       -0.9244240294   -1.6995032680    1.3101098866
13   
From optimize.out: Frame 1 / 17, Energy=    -286.7157761222
C        1.7303699031    0.5738322520   -0.3633649662
C        1.0477774770   -0.7500249240   -0.1314215252
C       -0.4876258307   -0.6355652481   -0.5275404631
C       -1.1319667881    0.6258851476    1.0059674571
C       -0.5476473167    0.9564929084   -0.4238202394
N        0.9527014282    1.5306814896   -0.6967925388
H        2.7473826926    0.9699987234   -0.1474870746
H        1.5496365734   -1.6869266249    0.1341224212
H       -0.7009523370   -1.4296396449   -1.1771533035
H       -2.1880286573    0.8098010813    1.2119992181
H       -1.2847573382    1.4891196600   -1.0711900591
C       -0.7032089793   -0.7277950033    0.9115018290
H       -0.9836808269   -1.7258598170    1.2751792445
13   
C6H6N->C6H6N atoms 1-13 frame 269 charge +0.000 sz -1.000 sz^2 1.088
C        1.7870721551    0.5836692576   -0.3914837360
C        1.0647366611   -0.7493820345   -0.1310586788
C       -0.5182810857   -0.6393300023   -0.5015080428
C       -1.1709469604    0.6158086878    1.0207413755
C       -0.5375080866    0.9623324970   -0.3956628791
N        1.0144203890    1.5320645090   -0.7131001613
H        2.8004383584    1.0218155917   -0.1912081803
H        1.5711462118   -1.6887681861    0.1398205340
H       -0.7276357449   -1.4354974473   -1.1149590237
H       -2.2388856953    0.7854909470    1.1806232063
H       -1.2789427603    1.5005588337   -1.0555684284
C       -0.7396234710   -0.7351241435    0.9217705674
H       -1.0259899712   -1.7536385098    1.2315934471
13   
C6H6N->C6H6N atoms 1-13 frame 271 charge +0.000 sz -1.000 sz^2 1.139
C        1.8015098665    0.5653835056   -0.4160951704
C        1.0862002134   -0.7486492220   -0.1537936573
C       -0.5107642826   -0.6857798732   -0.4996661392
C       -1.1879366950    0.6165611954    1.0629263044
C       -0.5549430042    0.9679039971   -0.3495051693
N        1.0309403683    1.5453616436   -0.7398491137
H        2.7869226058    1.0332894381   -0.1696323874
H        1.6208106983   -1.6780262170    0.1358196866
H       -0.7404138365   -1.5140994794   -1.0866271455
H       -2.2534933739    0.7790587241    1.2188837772
H       -1.2524326286    1.5443229869   -1.0601548748
C       -0.7509725120   -0.7316186395    0.8942177863
H       -1.0754274196   -1.6937080597    1.1634761031
13   
From optimize.out: Frame 2 / 21, Energy=    -286.7235159808
C        1.7991276384    0.5477030668   -0.4322493852
C        1.1071576118   -0.7432852957   -0.1792537784
C       -0.4856018442   -0.7297319857   -0.5074995251
C       -1.1945881907    0.6184502141    1.0982789301
C       -0.5779315536    0.9728226638   -0.3147087439
N        1.0248942141    1.5627244314   -0.7621704619
H        2.7576851044    1.0200909867   -0.1356943952
H        1.6660355359   -1.6555057053    0.1263619846
H       -0.7512276924   -1.5978979127   -1.0925521896
H       -2.2529133204    0.7838999960    1.2701425931
H       -1.2179069152    1.5796025442   -1.0633079313
C       -0.7543043818   -0.7256740583    0.8635046685
H       -1.1204262062   -1.6331989452    1.1291482343
13   
From optimize.out: Frame 4 / 21, Energy=    -286.7872332883
C        1.7569192095    0.5421391900   -0.4187997594
C        1.1092674709   -0.7352596584   -0.1993733708
C       -0.4441424405   -0.7279287961   -0.5268887300
C       -1.1639480400    0.6178947262    1.0804725021
C       -0.5911742210    0.9664491319   -0.3366281499
N        0.9674839728    1.5620457562   -0.7476676936
H        2.7158490844    0.9746661145   -0.0960187927
H        1.6685282908   -1.6391963164    0.0963516058
H       -0.7356123442   -1.5918830171   -1.1372376970
H       -2.2095915281    0.8027659225    1.2986337261
H       -1.2049467511    1.5685040783   -1.0771735455
C       -0.7404666421   -0.7226470836    0.8615370602
H       -1.1281660614   -1.6175500480    1.2027928448
13   
From optimize.out: Frame 6 / 21, Energy=    -286.8226899021
C        1.7124298775    0.5449901751   -0.3922742578
C        1.1043096790   -0.7326969168   -0.2108955128
C       -0.4115632265   -0.7074323521   -0.5405324906
C       -1.1272141553    0.6164154152    1.0443270644
C       -0.5891486463    0.9495540577   -0.3763448711
N        0.8979267529    1.5459643036   -0.7099296918
H        2.6834160064    0.9374502261   -0.0674269699
H        1.6562450011   -1.6393109802    0.0621003790
H       -0.7169526540   -1.5421494326   -1.1787640991
H       -2.1581167374    0.8258161624    1.3080959014
H       -1.2091786858    1.5350039407   -1.0961223057
C       -0.7278675175   -0.7218457872    0.8727809597
H       -1.1142856941   -1.6117588118    1.2849858941
13   
From optimize.out: Frame 8 / 21, Energy=    -286.8464497014
C        1.6795758224    0.5535124436   -0.3643986442
C        1.1140396232   -0.7327470698   -0.2286573273
C       -0.3773753764   -0.6949378439   -0.5478350788
C       -1.1029178770    0.6121270939    1.0106555839
C       -0.5817000322    0.9247810248   -0.4133457504
N        0.8288699326    1.5286479320   -0.6593084264
H        2.6635645181    0.9110028665   -0.0503052822
H        1.6653151155   -1.6413784002    0.0147029713
H       -0.7025951190   -1.4956975450   -1.2161286532
H       -2.1095341194    0.8628811175    1.3274101642
H       -1.2147080670    1.4931134156   -1.1160594795
C       -0.7379238547   -0.7234634791    0.8827209032
H       -1.1246105662   -1.5978415560    1.3605490193
13   
From optimize.out: Frame 12 / 21, Energy=    -286.8708357541
C        1.6670932635    0.5653936321   -0.3445892187
C        1.1433288843   -0.7323694760   -0.2552553616
C       -0.3413243501   -0.6925285653   -0.5428089201
C       -1.1029817113    0.6024381341    0.9859578114
C       -0.5734128415    0.8960982938   -0.4375425021
N        0.7804050063    1.5174522103   -0.6048485069
H        2.6652394578    0.8962963556   -0.0565514621
H        1.7031138518   -1.6399025717   -0.0467729517
H       -0.6849710714   -1.4599159972   -1.2390814540
H       -2.0760795704    0.9097375315    1.3549864018
H       -1.2217677438    1.4460273968   -1.1299055491
C       -0.7811636821   -0.7280329135    0.8925746265
H       -1.1774794932   -1.5806940306    1.4238370866
13   
From optimize.out: Frame 13 / 21, Energy=    -286.8734849495
C        1.6680997715    0.5771416101   -0.3329202948
C        1.1803907378   -0.7306350707   -0.2840459876
C       -0.3059719172   -0.6974910197   -0.5253684714
C       -1.1223361525    0.5900892253    0.9700517996
C       -0.5658821880    0.8681540691   -0.4462984544
N        0.7541940237    1.5152802958   -0.5520176501
H        2.6804111270    0.8906280656   -0.0835593442
H        1.7554778436   -1.6337112616   -0.1120203254
H       -0.6645835491   -1.4353512138   -1.2454783041
H       -2.0559190412    0.9616978452    1.3819256430
H       -1.2267278748    1.3969390940   -1.1376680616
C       -0.8424318259   -0.7352437128    0.9008891963
H       -1.2547209549   -1.5674979264    1.4665102548
13   
From optimize.out: Frame 15 / 21, Energy=    -286.8752931953
C        1.6710270117    0.5886300993   -0.3202744903
C        1.2121985211   -0.7294452707   -0.3070798511
C       -0.2751475506   -0.7083561460   -0.5006411911
C       -1.1532309240    0.5769615221    0.9540827584
C       -0.5583819145    0.8426728032   -0.4465504063
N        0.7384802755    1.5192295407   -0.4935693614
H        2.6960878694    0.8934800049   -0.1198886889
H        1.8074626287   -1.6245148255   -0.1716797023
H       -0.6496946473   -1.4153365598   -1.2446734858
H       -2.0306617024    1.0276306960    1.4073167742
H       -1.2275370545    1.3422429580   -1.1497719851
C       -0.9063026748   -0.7465038826    0.9032275656
H       -1.3242998381   -1.5666909396    1.4895020642
13   
From optimize.out: Frame 18 / 21, Energy=    -286.8754023048
C        1.6707312624    0.5984738059   -0.3035538775
C        1.2333763463   -0.7297085875   -0.3223694295
C       -0.2539028587   -0.7238243298   -0.4735555634
C       -1.1975744101    0.5624744079    0.9306593050
C       -0.5533290896    0.8213378529   -0.4436524067
N        0.7256280430    1.5235559461   -0.4287233764
H        2.7043009139    0.9034186694   -0.1516925260
H        1.8517108530   -1.6134255550   -0.2205209899
H       -0.6434079589   -1.3952621136   -1.2451252222
H       -1.9845406136    1.1075683754    1.4382922621
H       -1.2204992972    1.2833024400   -1.1751657148
C       -0.9692896949   -0.7594057951    0.8958262241
H       -1.3632034955   -1.5785051166    1.4995813153
13   
From optimize.out: Frame 1 / 3, Energy=    -286.8754359123
C        1.6638630068    0.6042618938   -0.2843146554
C        1.2402084720   -0.7313936657   -0.3320068201
C       -0.2477524624   -0.7400279814   -0.4530967488
C       -1.2555618566    0.5500094104    0.8969470884
C       -0.5550400273    0.8066604687   -0.4431062142
N        0.7106597136    1.5253961153   -0.3668741737
H        2.7002678726    0.9149061762   -0.1616603912
H        1.8783395830   -1.6042983650   -0.2556015246
H       -0.6432267418   -1.3771467841   -1.2533754688
H       -1.9112976139    1.1791395201    1.4838288904
H       -1.1990459766    1.2317958864   -1.2191892443
C       -1.0261392955   -0.7686898783    0.8782382451
H       -1.3552746738   -1.5906127964    1.5102110174
13   
From optimize.out: Frame 2 / 3, Energy=    -286.8754381820
C        1.6498617841    0.6053413523   -0.2614928007
C        1.2319943246   -0.7326085635   -0.3358821724
C       -0.2563921013   -0.7498130883   -0.4545399288
C       -1.3114987506    0.5414231106    0.8580309863
C       -0.5681885622    0.7998199937   -0.4528860814
N        0.6915153921    1.5243072685   -0.3212811176
H        2.6848606211    0.9212095018   -0.1375320144
H        1.8788730690   -1.6008780315   -0.2741638609
H       -0.6491931915   -1.3694793915   -1.2713614457
H       -1.8169574232    1.2177279921    1.5407014661
H       -1.1698818898    1.2036817918   -1.2764587002
C       -1.0612319078   -0.7723013138    0.8555262725
H       -1.3037613645   -1.5884306221    1.5313393971
