13   
From optimize.out: Frame 16 / 17, Energy=    -286.8365048754
C        1.5440404333    0.5861293134   -0.1642656935
C        0.8932240621   -0.7432938957    0.0274589318
C       -0.4118021088   -0.6570999196   -0.6948209223
C       -1.0183475571    0.6294805270    0.8815113260
C       -0.6032954815    0.9022185475   -0.5702328577
N        0.7481623825    1.5150230143   -0.5423615294
H        2.5983866781    0.7809973401    0.0292120357
H        1.4557634281   -1.6712684557    0.0633870647
H       -0.8129686200   -1.3478195967   -1.4308827970
H       -1.9834849206    0.8770013627    1.3088557403
H       -1.2899603538    1.4326196268   -1.2296229830
C       -0.4463686444   -0.7299036655    0.8394551851
H       -0.6733492982   -1.5740841980    1.4823064987
13   
From optimize.out: Frame 15 / 17, Energy=    -286.8365024097
C        1.5438469177    0.5859448630   -0.1649457888
C        0.8933014116   -0.7435733548    0.0263465787
C       -0.4120779842   -0.6576811367   -0.6944418710
C       -1.0177794448    0.6298603441    0.8817468997
C       -0.6026782462    0.9018121747   -0.5702421063
N        0.7478007690    1.5153708614   -0.5415897849
H        2.5976475437    0.7811598371    0.0307228769
H        1.4555408814   -1.6716736018    0.0628918282
H       -0.8143070464   -1.3470420781   -1.4314559464
H       -1.9839455541    0.8767017579    1.3072825687
H       -1.2894409582    1.4321680399   -1.2294218059
C       -0.4462004822   -0.7297206354    0.8395143610
H       -0.6717078074   -1.5733270712    1.4835921902
13   
From optimize.out: Frame 14 / 17, Energy=    -286.8364997532
C        1.5446898481    0.5853761881   -0.1648619373
C        0.8938060705   -0.7428310972    0.0283422101
C       -0.4110786445   -0.6566868640   -0.6931909125
C       -1.0191552576    0.6295364524    0.8825672046
C       -0.6030112689    0.9028878728   -0.5694272526
N        0.7483990843    1.5144926105   -0.5422282355
H        2.5996451446    0.7791611519    0.0260277021
H        1.4558371095   -1.6710352760    0.0642408700
H       -0.8129784784   -1.3445125064   -1.4318424386
H       -1.9868445001    0.8746449824    1.3058349206
H       -1.2900474214    1.4325083234   -1.2290385655
C       -0.4475441970   -0.7296794551    0.8399008609
H       -0.6717174890   -1.5738623827    1.4836755737
13   
From optimize.out: Frame 12 / 17, Energy=    -286.8364750842
C        1.5443034409    0.5869305741   -0.1632544095
C        0.8944789355   -0.7432900495    0.0235336805
C       -0.4125443626   -0.6588733868   -0.6941622647
C       -1.0168780745    0.6297507907    0.8829127180
C       -0.6022286859    0.9012122899   -0.5702125922
N        0.7475362105    1.5158953852   -0.5404567551
H        2.5994090889    0.7798774833    0.0276698477
H        1.4548209370   -1.6722127256    0.0685752727
H       -0.8167015676   -1.3426834458   -1.4358797681
H       -1.9856270035    0.8752210745    1.3037513589
H       -1.2903106880    1.4314437683   -1.2280062740
C       -0.4480141578   -0.7308895884    0.8384793052
H       -0.6682440730   -1.5723821701    1.4870498805
13   
From optimize.out: Frame 10 / 17, Energy=    -286.8359926413
C        1.5485246921    0.5812475004   -0.1830959568
C        0.8974713111   -0.7385865428    0.0456549340
C       -0.4015477927   -0.6571580761   -0.6836333353
C       -1.0216413007    0.6286148852    0.8899425717
C       -0.5989001392    0.9014717120   -0.5623448658
N        0.7468110305    1.5149723464   -0.5378052150
H        2.6030583851    0.7778881710    0.0055915060
H        1.4646322243   -1.6639396066    0.0491971414
H       -0.7968971316   -1.3354493182   -1.4360974473
H       -1.9950096427    0.8768473228    1.2987307477
H       -1.2862541733    1.4276210016   -1.2238310338
C       -0.4659127139   -0.7363069273    0.8456140738
H       -0.6943347488   -1.5772224683    1.4920768795
13   
From optimize.out: Frame 9 / 17, Energy=    -286.8356440959
C        1.5440706587    0.5912213311   -0.1596930593
C        0.8874049488   -0.7417233189    0.0363023127
C       -0.4075250885   -0.6606957741   -0.7090665909
C       -1.0171291562    0.6206389690    0.8782637717
C       -0.6087674492    0.8936984576   -0.5776767707
N        0.7433509842    1.5157409002   -0.5279052824
H        2.6035482724    0.7701912235    0.0205132226
H        1.4458281411   -1.6719492819    0.0957663697
H       -0.8364567824   -1.3138756455   -1.4654261829
H       -1.9827911281    0.8706513066    1.3033800691
H       -1.2935915862    1.4279373059   -1.2346712853
C       -0.4326359953   -0.7402179986    0.8318016253
H       -0.6453058193   -1.5616174748    1.5084118004
13   
From optimize.out: Frame 8 / 17, Energy=    -286.8355571031
C        1.5382700183    0.5807353129   -0.1485416722
C        0.9020810120   -0.7504875978    0.0079480679
C       -0.4194516004   -0.6604686053   -0.6764102681
C       -1.0165728623    0.6421927868    0.8911300469
C       -0.5971756145    0.9036314671   -0.5662831125
N        0.7451418053    1.5122017643   -0.5407615720
H        2.5942049175    0.7706832388    0.0350968946
H        1.4635226426   -1.6786567932    0.0241421588
H       -0.7955220699   -1.3473281446   -1.4360378032
H       -2.0013262868    0.8796160061    1.2810191626
H       -1.2952513170    1.4260582643   -1.2183276526
C       -0.4587052440   -0.7200489187    0.8443153264
H       -0.6592154009   -1.5581287807    1.5027104234
13   
From optimize.out: Frame 7 / 17, Energy=    -286.8348247887
C        1.5416853072    0.5737331020   -0.1851353355
C        0.8933033536   -0.7373159849    0.0052761529
C       -0.4229324270   -0.6522088975   -0.6763332268
C       -0.9991780573    0.6395943538    0.9018924565
C       -0.5958988483    0.9142004993   -0.5604972797
N        0.7468746880    1.5140968664   -0.5650624497
H        2.5908632733    0.7720927382    0.0225753755
H        1.4288632130   -1.6735034184    0.1109213370
H       -0.7600575166   -1.3472109713   -1.4497770024
H       -1.9862988225    0.8709024643    1.2906012664
H       -1.3104281033    1.4351027604   -1.1953086976
C       -0.4671507996   -0.7274124879    0.8312713527
H       -0.6596452604   -1.5820710244    1.4695760507
13   
From optimize.out: Frame 6 / 17, Energy=    -286.8308169607
C        1.5467053407    0.5672568507   -0.2017692536
C        0.9051343371   -0.7391383316   -0.0338090636
C       -0.4351159598   -0.6472867930   -0.6591876727
C       -0.9926852380    0.6472743184    0.9123050779
C       -0.5864296596    0.9247564622   -0.5499962370
N        0.7545909624    1.5140377664   -0.5899404618
H        2.5864503172    0.7883244744    0.0311120296
H        1.4189143472   -1.6766889569    0.1379133921
H       -0.7414791408   -1.3665001934   -1.4222537887
H       -1.9900293431    0.8654708957    1.2839630728
H       -1.3132821817    1.4422445249   -1.1749848083
C       -0.4818140459   -0.7187753898    0.8331963070
H       -0.6709597358   -1.6009756279    1.4334514064
13   
From optimize.out: Frame 5 / 17, Energy=    -286.8234886508
C        1.5622143612    0.5617380002   -0.2340730485
C        0.9226808395   -0.7378728455   -0.0693129292
C       -0.4415207257   -0.6400556683   -0.6373803879
C       -0.9939574200    0.6466150744    0.9268663857
C       -0.5742589544    0.9353944883   -0.5339084138
N        0.7735981998    1.5134194653   -0.6248393140
H        2.5894568494    0.8175377874    0.0275616639
H        1.4137881638   -1.6741669180    0.1661456297
H       -0.7246554048   -1.3816100180   -1.3810958430
H       -2.0007670470    0.8542112919    1.2804485293
H       -1.3089842356    1.4525452241   -1.1546458303
C       -0.5087963996   -0.7175376335    0.8414236069
H       -0.7087982265   -1.6302182484    1.3928099512
13   
From optimize.out: Frame 4 / 17, Energy=    -286.8103184649
C        1.6017456879    0.5604471847   -0.2780058604
C        0.9651530326   -0.7391602162   -0.1043490676
C       -0.4465537250   -0.6368500135   -0.6004532518
C       -1.0248153974    0.6427030834    0.9518601215
C       -0.5602816311    0.9418981626   -0.5010308702
N        0.8129522057    1.5167573683   -0.6508496632
H        2.6222469756    0.8609709111   -0.0165828943
H        1.4540553520   -1.6735701249    0.1532246141
H       -0.7030967628   -1.4002059148   -1.3163035856
H       -2.0468910576    0.8451098235    1.2655182068
H       -1.2962915734    1.4622492374   -1.1267589131
C       -0.5721732596   -0.7191826720    0.8658271462
H       -0.8060498468   -1.6611668295    1.3579040175
13   
From optimize.out: Frame 3 / 17, Energy=    -286.7889980948
C        1.6603042150    0.5634078671   -0.3245573032
C        1.0108329615   -0.7423189058   -0.1255881546
C       -0.4601328135   -0.6343395986   -0.5613620306
C       -1.0762325376    0.6348600911    0.9800674312
C       -0.5525220548    0.9482724001   -0.4614768145
N        0.8760732702    1.5233260045   -0.6742752124
H        2.6785747320    0.9092842070   -0.0814138117
H        1.5060897218   -1.6765670213    0.1371120393
H       -0.6907883587   -1.4155741581   -1.2456725425
H       -2.1158265074    0.8292001510    1.2420655319
H       -1.2874438203    1.4739459851   -1.0969768904
C       -0.6424018049   -0.7217981165    0.8916712905
H       -0.9065270033   -1.6916989058    1.3204064669
13   
From optimize.out: Frame 2 / 17, Energy=    -286.7574040054
C        1.7296454076    0.5736352727   -0.3631373680
C        1.0480210882   -0.7502682629   -0.1316248234
C       -0.4869314017   -0.6354725815   -0.5278322802
C       -1.1316854207    0.6261138246    1.0060324608
C       -0.5480101130    0.9564503676   -0.4240575786
N        0.9519244374    1.5308333273   -0.6966743457
H        2.7467649506    0.9692447835   -0.1472254411
H        1.5498793380   -1.6871161156    0.1337664772
H       -0.6999862042   -1.4298366497   -1.1781614907
H       -2.1876393527    0.8104048357    1.2126908737
H       -1.2849300866    1.4890479897   -1.0712210203
C       -0.7031828813   -0.7276110027    0.9115351786
H       -0.9838697616   -1.7254257887    1.2759093579
13   
From optimize.out: Frame 1 / 17, Energy=    -286.7157761222
C        1.7980811450    0.5861882043   -0.3964249635
C        1.0674740995   -0.7492076142   -0.1303143312
C       -0.5246884062   -0.6387963065   -0.4963369139
C       -1.1782822978    0.6137355024    1.0224821697
C       -0.5349439841    0.9633508236   -0.3913189088
N        1.0263615820    1.5319591849   -0.7156201463
H        2.8114799538    1.0319002157   -0.2005540853
H        1.5739886737   -1.6893494099    0.1411308794
H       -0.7328040596   -1.4344711385   -1.1032692704
H       -2.2486636182    0.7807390865    1.1732015430
H       -1.2784521322    1.5016028905   -1.0522995613
C       -0.7465539149   -0.7367114817    0.9245665602
H       -1.0329970411   -1.7609399571    1.2247570286
13   
C6H6N->C6H6N atoms 1-13 frame 268 charge +0.000 sz -1.000 sz^2 1.064
C        1.7980811450    0.5861882043   -0.3964249635
C        1.0674740995   -0.7492076142   -0.1303143312
C       -0.5246884062   -0.6387963065   -0.4963369139
C       -1.1782822978    0.6137355024    1.0224821697
C       -0.5349439841    0.9633508236   -0.3913189088
N        1.0263615820    1.5319591849   -0.7156201463
H        2.8114799538    1.0319002157   -0.2005540853
H        1.5739886737   -1.6893494099    0.1411308794
H       -0.7328040596   -1.4344711385   -1.1032692704
H       -2.2486636182    0.7807390865    1.1732015430
H       -1.2784521322    1.5016028905   -1.0522995613
C       -0.7465539149   -0.7367114817    0.9245665602
H       -1.0329970411   -1.7609399571    1.2247570286
13   
C6H6N->C6H6N atoms 1-13 frame 269 charge +0.000 sz -1.000 sz^2 1.088
C        1.7999698621    0.5750309269   -0.4068186800
C        1.0764560708   -0.7497031440   -0.1422074083
C       -0.5190384846   -0.6628954544   -0.4976787647
C       -1.1829767586    0.6153905602    1.0432239722
C       -0.5446999743    0.9655207756   -0.3696090136
N        1.0296400637    1.5378675395   -0.7280128838
H        2.7993049137    1.0345792725   -0.1848610439
H        1.5977622372   -1.6854819175    0.1386416754
H       -0.7352779632   -1.4728927632   -1.0909059122
H       -2.2512276781    0.7790796440    1.1955754363
H       -1.2669437421    1.5242264746   -1.0575104704
C       -0.7486746669   -0.7341441357    0.9093930524
H       -1.0542938797   -1.7265777787    1.1907700406
13   
C6H6N->C6H6N atoms 1-13 frame 270 charge -0.000 sz -1.000 sz^2 1.112
C        1.8016253502    0.5648257714   -0.4163966726
C        1.0860310918   -0.7491061434   -0.1539278111
C       -0.5114672212   -0.6863303727   -0.4994105687
C       -1.1879086403    0.6166505450    1.0634998231
C       -0.5548891958    0.9678142587   -0.3487616528
N        1.0314556861    1.5449889894   -0.7399918607
H        2.7867438728    1.0343768958   -0.1692721449
H        1.6212433919   -1.6791075720    0.1358772970
H       -0.7398753842   -1.5140026510   -1.0846288043
H       -2.2535408086    0.7784879510    1.2188284115
H       -1.2531506615    1.5453292040   -1.0609655204
C       -0.7509198454   -0.7317357504    0.8941310123
H       -1.0753476358   -1.6921911256    1.1610184915
13   
C6H6N->C6H6N atoms 1-13 frame 271 charge +0.000 sz -1.000 sz^2 1.139
C        1.8030316049    0.5557624677   -0.4253598720
C        1.0962489386   -0.7473421373   -0.1655516732
C       -0.5019323848   -0.7089333043   -0.5017625539
C       -1.1930409436    0.6176714183    1.0829099545
C       -0.5654675511    0.9703608420   -0.3291986850
N        1.0319580386    1.5532602117   -0.7518002387
H        2.7742127131    1.0313579104   -0.1541303820
H        1.6442173344   -1.6698839226    0.1328849171
H       -0.7461463491   -1.5567494880   -1.0836422638
H       -2.2557488944    0.7792617533    1.2428096003
H       -1.2371348670    1.5644718343   -1.0624517754
C       -0.7533404993   -0.7290820876    0.8787407621
H       -1.0968571402   -1.6601554979    1.1365522101
13   
C6H6N->C6H6N atoms 1-13 frame 272 charge +0.000 sz -1.000 sz^2 1.167
C        1.8041674629    0.5479758559   -0.4339335956
C        1.1071500227   -0.7443714333   -0.1771711983
C       -0.4904133995   -0.7306278249   -0.5049672277
C       -1.1983302460    0.6185843548    1.1010592994
C       -0.5763915526    0.9732553697   -0.3113200941
N        1.0312807063    1.5625758013   -0.7637177254
H        2.7621369949    1.0256459379   -0.1397802205
H        1.6665327746   -1.6576247841    0.1297173460
H       -0.7534700101   -1.5997537740   -1.0868482891
H       -2.2579749777    0.7816471917    1.2673806226
H       -1.2191176685    1.5812920046   -1.0619116306
C       -0.7559732955   -0.7258294871    0.8631979107
H       -1.1195968115   -1.6327692125    1.1182948026
13   
From optimize.out: Frame 1 / 21, Energy=    -286.6753260616
C        1.8050014070    0.5415322803   -0.4423243207
C        1.1187512545   -0.7402022815   -0.1888849549
C       -0.4769196004   -0.7514104113   -0.5092319610
C       -1.2037404058    0.6194616056    1.1175944619
C       -0.5876260705    0.9765467190   -0.2954561836
N        1.0295342772    1.5727920240   -0.7759987922
H        2.7509289105    1.0173950125   -0.1265035296
H        1.6880937070   -1.6423300896    0.1264245952
H       -0.7611395691   -1.6415554228   -1.0930620013
H       -2.2603085573    0.7857986184    1.2924426835
H       -1.1994640296    1.5955221436   -1.0593915313
C       -0.7588710596   -0.7217485991    0.8475019783
H       -1.1442402640   -1.6118015990    1.1068895558
13   
From optimize.out: Frame 2 / 21, Energy=    -286.7235159808
C        1.7596883067    0.5421466409   -0.4213053505
C        1.1093832201   -0.7350735313   -0.1987590315
C       -0.4463221878   -0.7292286384   -0.5274003759
C       -1.1661282510    0.6176601406    1.0825738338
C       -0.5927271778    0.9697490686   -0.3349172229
N        0.9750464135    1.5654534148   -0.7526468992
H        2.7182750379    0.9769955602   -0.0983890127
H        1.6687047617   -1.6384827038    0.0989973566
H       -0.7349924012   -1.5956591544   -1.1357037302
H       -2.2131778151    0.8006593508    1.2980528540
H       -1.2051881634    1.5731905110   -1.0762383847
C       -0.7414725525   -0.7244123293    0.8620095196
H       -1.1310891910   -1.6229983297    1.2037264437
13   
From optimize.out: Frame 3 / 21, Energy=    -286.7601272681
C        1.7163868801    0.5425880397   -0.3972656946
C        1.1019099285   -0.7317899423   -0.2082301438
C       -0.4160796303   -0.7082119501   -0.5395106164
C       -1.1305688598    0.6170546627    1.0492335406
C       -0.5915641937    0.9539134445   -0.3703580990
N        0.9092726673    1.5488590958   -0.7188302402
H        2.6856770384    0.9388409259   -0.0694111110
H        1.6534416419   -1.6378779858    0.0696480964
H       -0.7171870140   -1.5486551672   -1.1729817583
H       -2.1658531330    0.8187407040    1.3041846825
H       -1.2087438902    1.5410949040   -1.0920318109
C       -0.7250320388   -0.7207150881    0.8714726603
H       -1.1116593965   -1.6138416431    1.2740804943
13   
From optimize.out: Frame 4 / 21, Energy=    -286.7872332883
C        1.6848482813    0.5487612853   -0.3728322513
C        1.1041046121   -0.7323889781   -0.2195879158
C       -0.3897097132   -0.6957313731   -0.5481210235
C       -1.1044085469    0.6151669101    1.0203422946
C       -0.5849955293    0.9351638943   -0.4029803133
N        0.8481471790    1.5333575090   -0.6798039074
H        2.6637129055    0.9162441224   -0.0499500723
H        1.6527263533   -1.6411249408    0.0362159688
H       -0.7076692167   -1.5089432168   -1.2060195890
H       -2.1229310462    0.8453469842    1.3169531559
H       -1.2116059095    1.5098936432   -1.1100939555
C       -0.7238053574   -0.7216608128    0.8794640641
H       -1.1084140121   -1.6040850268    1.3364135447
13   
From optimize.out: Frame 5 / 21, Energy=    -286.8069980554
C        1.6685807716    0.5577738965   -0.3532406110
C        1.1193787041   -0.7333764379   -0.2358717098
C       -0.3647582159   -0.6915398084   -0.5504826628
C       -1.0949249103    0.6103495768    0.9980583872
C       -0.5781219235    0.9146960625   -0.4275813721
N        0.8027562332    1.5220914081   -0.6384092273
H        2.6576374604    0.9028242509   -0.0448665567
H        1.6711653618   -1.6427317279   -0.0044893564
H       -0.6983047064   -1.4788303055   -1.2304064634
H       -2.0912298519    0.8790690993    1.3361697115
H       -1.2172084110    1.4766994570   -1.1241558188
C       -0.7441919907   -0.7247753659    0.8862241963
H       -1.1307785212   -1.5922501055    1.3890514833
13   
From optimize.out: Frame 6 / 21, Energy=    -286.8226899021
C        1.6649212124    0.5665554658   -0.3419412592
C        1.1451342504   -0.7324769936   -0.2572654185
C       -0.3385404996   -0.6916710448   -0.5442604994
C       -1.1009708480    0.6018506474    0.9828946640
C       -0.5728279218    0.8936668488   -0.4415889648
N        0.7741600922    1.5154265766   -0.6000716026
H        2.6642245632    0.8940787627   -0.0543396038
H        1.7048161054   -1.6403327385   -0.0512282056
H       -0.6840570472   -1.4558583201   -1.2432980710
H       -2.0717110110    0.9133740255    1.3579947988
H       -1.2231491521    1.4423048325   -1.1319232611
C       -0.7830690096   -0.7281757850    0.8933908823
H       -1.1789307343   -1.5787422773    1.4316365407
13   
From optimize.out: Frame 7 / 21, Energy=    -286.8358041423
C        1.6672533446    0.5747208802   -0.3353523284
C        1.1745264360   -0.7308710181   -0.2799455583
C       -0.3118354189   -0.6947656736   -0.5307458206
C       -1.1161427322    0.5921236321    0.9723860430
C       -0.5675129491    0.8729212350   -0.4471618397
N        0.7559339863    1.5131158577   -0.5634205650
H        2.6767588987    0.8895502809   -0.0749216451
H        1.7454489949   -1.6355620748   -0.1005604717
H       -0.6675099157   -1.4379583803   -1.2467534603
H       -2.0596305049    0.9483372840    1.3778778970
H       -1.2266499769    1.4075102896   -1.1357817980
C       -0.8302208534   -0.7323807677    0.9005029569
H       -1.2404193092   -1.5667415453    1.4638765904
13   
From optimize.out: Frame 8 / 21, Energy=    -286.8464497014
C        1.6699789649    0.5831548913   -0.3275995208
C        1.1991491850   -0.7296955013   -0.2980961413
C       -0.2883897681   -0.7016024937   -0.5140366468
C       -1.1351940224    0.5838121208    0.9631411728
C       -0.5619101667    0.8542867158   -0.4478436707
N        0.7445035106    1.5164916196   -0.5245330370
H        2.6895896211    0.8897361640   -0.1012923988
H        1.7833434974   -1.6297676988   -0.1451422198
H       -0.6543818338   -1.4249489858   -1.2456718253
H       -2.0469636586    0.9904186916    1.3946628860
H       -1.2283339333    1.3711085121   -1.1412209808
C       -0.8753337518   -0.7399789012    0.9044004387
H       -1.2960576442   -1.5630151344    1.4832319437
13   
From optimize.out: Frame 9 / 21, Energy=    -286.8549857704
C        1.6721066694    0.5904744494   -0.3188964725
C        1.2173906043   -0.7289570279   -0.3104678086
C       -0.2699677038   -0.7094562933   -0.4971811348
C       -1.1564947988    0.5752751166    0.9527456627
C       -0.5571711814    0.8388385322   -0.4465624364
N        0.7368412458    1.5202722396   -0.4857360825
H        2.6995710547    0.8933621841   -0.1264016577
H        1.8152367342   -1.6232099831   -0.1804470485
H       -0.6470200112   -1.4126911337   -1.2440746379
H       -2.0294332613    1.0356737284    1.4101985055
H       -1.2286925522    1.3346201056   -1.1503348523
C       -0.9152832685   -0.7482727553    0.9042596409
H       -1.3370835312   -1.5659291625    1.4928983220
13   
From optimize.out: Frame 10 / 21, Energy=    -286.8617412617
C        1.6722054010    0.5963020889   -0.3095754374
C        1.2301655517   -0.7292559504   -0.3195235787
C       -0.2568794182   -0.7182886725   -0.4814509658
C       -1.1796275379    0.5671142203    0.9407053396
C       -0.5534469195    0.8263679966   -0.4445594863
N        0.7298846695    1.5230178942   -0.4491452876
H        2.7046765505    0.8992766152   -0.1458469262
H        1.8413989008   -1.6169688438   -0.2089333019
H       -0.6435644084   -1.4016307758   -1.2433794333
H       -2.0061167078    1.0815668097    1.4255990863
H       -1.2258518352    1.3009570217   -1.1626793252
C       -0.9502766535   -0.7558181901    0.9010142033
H       -1.3625675930   -1.5726402140    1.4977751131
13   
From optimize.out: Frame 11 / 21, Energy=    -286.8669639879
C        1.6715695860    0.6005995909   -0.3004881949
C        1.2384146573   -0.7295559428   -0.3249513583
C       -0.2488266567   -0.7266499437   -0.4677893170
C       -1.2050728215    0.5592270600    0.9269741302
C       -0.5520321716    0.8170526169   -0.4428161923
N        0.7238466969    1.5242673377   -0.4162703279
H        2.7070991435    0.9054056764   -0.1599423306
H        1.8615239371   -1.6108938482   -0.2299880434
H       -0.6423615830   -1.3910639395   -1.2444144636
H       -1.9779200902    1.1236299769    1.4428206502
H       -1.2207234881    1.2715235452   -1.1785379532
C       -0.9815414866   -0.7622672671    0.8949105798
H       -1.3739757231   -1.5812748627    1.5004928211
13   
From optimize.out: Frame 12 / 21, Energy=    -286.8708357541
C        1.6683952855    0.6035483528   -0.2915960246
C        1.2421220858   -0.7305350722   -0.3296462782
C       -0.2453842292   -0.7349229221   -0.4568629806
C       -1.2317102180    0.5530726575    0.9117994631
C       -0.5519463667    0.8098506824   -0.4416962923
N        0.7169332153    1.5252997936   -0.3866296010
H        2.7051600605    0.9114704859   -0.1662809912
H        1.8752580775   -1.6062544414   -0.2469814825
H       -0.6420179738   -1.3823529700   -1.2475886632
H       -1.9447626904    1.1608304884    1.4622286656
H       -1.2113859578    1.2463266651   -1.1978268534
C       -1.0087004214   -0.7670953453    0.8870627324
H       -1.3719608674   -1.5892383746    1.5040183059
13   
From optimize.out: Frame 13 / 21, Energy=    -286.8734849495
C        1.6658180209    0.6051629422   -0.2831890462
C        1.2430255853   -0.7308157685   -0.3304584719
C       -0.2453583258   -0.7409968836   -0.4497169376
C       -1.2600663098    0.5476074160    0.8950153682
C       -0.5553132981    0.8054332044   -0.4424066544
N        0.7112275191    1.5247876620   -0.3622488467
H        2.7030783970    0.9161426672   -0.1677944645
H        1.8835942703   -1.6022377643   -0.2563373097
H       -0.6435128895   -1.3737262130   -1.2527818739
H       -1.9079542410    1.1875557242    1.4869606484
H       -1.2008836128    1.2261734228   -1.2209331220
C       -1.0333378971   -0.7703484027    0.8763126569
H       -1.3603172184   -1.5947380066    1.5075780534
13   
From optimize.out: Frame 14 / 21, Energy=    -286.8749847038
C        1.6574603484    0.6058554168   -0.2742088360
C        1.2388148945   -0.7328455900   -0.3371370818
C       -0.2496073281   -0.7482246696   -0.4456993312
C       -1.2879992489    0.5452048448    0.8772523319
C       -0.5576375112    0.8009528169   -0.4438489643
N        0.7015883033    1.5261864386   -0.3368752380
H        2.6937020590    0.9203189328   -0.1579102433
H        1.8851538413   -1.6011137115   -0.2709309804
H       -0.6437680288   -1.3695353061   -1.2605835536
H       -1.8670283280    1.2105302440    1.5106794019
H       -1.1827175025    1.2089753906   -1.2467749696
C       -1.0516916446   -0.7718030837    0.8674305763
H       -1.3362698545   -1.5945017235    1.5186068881
13   
From optimize.out: Frame 15 / 21, Energy=    -286.8752931953
C        1.6593228607    0.6054078340   -0.2662578527
C        1.2382243870   -0.7309395995   -0.3249861922
C       -0.2517442212   -0.7472524485   -0.4487495442
C       -1.3149298150    0.5417657230    0.8586834215
C       -0.5692043625    0.8027130581   -0.4510672681
N        0.7002781756    1.5217295496   -0.3286297064
H        2.6957247221    0.9219213422   -0.1541849689
H        1.8863108584   -1.5984174012   -0.2612191418
H       -0.6524160189   -1.3621804174   -1.2660445274
H       -1.8265705659    1.2045789836    1.5497423497
H       -1.1747681017    1.2025439230   -1.2750311064
C       -1.0709061372   -0.7711882218    0.8500023215
H       -1.3193217816   -1.5906823251    1.5177422155
13   
From optimize.out: Frame 17 / 21, Energy=    -286.8753167630
C        1.6480189555    0.6046441707   -0.2657459539
C        1.2305982320   -0.7347465881   -0.3429267630
C       -0.2571502389   -0.7505148859   -0.4490032104
C       -1.3102402596    0.5487969614    0.8579653317
C       -0.5619421713    0.7997063679   -0.4525534659
N        0.6923161606    1.5275383343   -0.3207931397
H        2.6826327792    0.9202493036   -0.1384448388
H        1.8773047914   -1.6032802998   -0.2803302580
H       -0.6434627364   -1.3689981585   -1.2699658967
H       -1.8298957373    1.2081657970    1.5466288216
H       -1.1616793531    1.2010461177   -1.2786457735
C       -1.0612286966   -0.7668308149    0.8612100409
H       -1.3052717256   -1.5857763052    1.5326051055
13   
From optimize.out: Frame 18 / 21, Energy=    -286.8754023048
C        1.6550957842    0.6057089037   -0.2646932009
C        1.2360801597   -0.7318214217   -0.3297546261
C       -0.2530689936   -0.7483264414   -0.4527880353
C       -1.3079569804    0.5416565057    0.8619141281
C       -0.5682948211    0.8013526700   -0.4510120121
N        0.6962833509    1.5236116703   -0.3280899612
H        2.6906400115    0.9221839242   -0.1462761684
H        1.8830777373   -1.6000481265   -0.2667524485
H       -0.6518628032   -1.3682621829   -1.2666809235
H       -1.8269021232    1.2120122438    1.5404134800
H       -1.1745828890    1.2051575455   -1.2715666379
C       -1.0627378427   -0.7723142846    0.8535087523
H       -1.3157705904   -1.5909110060    1.5217776534
13   
From optimize.out: Frame 19 / 21, Energy=    -286.8754475984
C        1.6509950778    0.6055929469   -0.2632449206
C        1.2324348502   -0.7322637266   -0.3354881485
C       -0.2564370688   -0.7500753123   -0.4524936315
C       -1.3119703842    0.5410882589    0.8593523332
C       -0.5677111896    0.7999269156   -0.4513502493
N        0.6929227932    1.5246857684   -0.3222552417
H        2.6860319469    0.9217208235   -0.1400041515
H        1.8796367037   -1.6003813232   -0.2735697744
H       -0.6478681972   -1.3686375843   -1.2709753221
H       -1.8188356237    1.2178447624    1.5405318665
H       -1.1697791965    1.2024678259   -1.2755775732
C       -1.0625986140   -0.7727425130    0.8554790249
H       -1.3068210978   -1.5892268423    1.5295957882
13   
From optimize.out: Frame 20 / 21, Energy=    -286.8754496250
C        1.6500234617    0.6054662198   -0.2623269699
C        1.2325746745   -0.7329617889   -0.3362170362
C       -0.2559647801   -0.7503191053   -0.4537266461
C       -1.3115348783    0.5419118886    0.8585487964
C       -0.5677066057    0.7997117074   -0.4520205131
N        0.6917772394    1.5248709807   -0.3214182596
H        2.6847934793    0.9219090544   -0.1378675780
H        1.8797572563   -1.6011290235   -0.2742709021
H       -0.6496916009   -1.3699829537   -1.2702100914
H       -1.8178740554    1.2180200326    1.5408240070
H       -1.1692559991    1.2031145147   -1.2759942128
C       -1.0616590323   -0.7720564340    0.8550882347
H       -1.3052391595   -1.5885550930    1.5295911710
