13   
From optimize.out: Frame 1 / 1, Energy=    -286.8365048672
C        1.5440404333    0.5861293134   -0.1642656935
C        0.8932240621   -0.7432938957    0.0274589318
C       -0.4118021088   -0.6570999196   -0.6948209223
C       -1.0183475571    0.6294805270    0.8815113260
C       -0.6032954815    0.9022185475   -0.5702328577
N        0.7481623825    1.5150230143   -0.5423615294
H        2.5983866781    0.7809973401    0.0292120357
H        1.4557634281   -1.6712684557    0.0633870647
H       -0.8129686200   -1.3478195967   -1.4308827970
H       -1.9834849206    0.8770013627    1.3088557403
H       -1.2899603538    1.4326196268   -1.2296229830
C       -0.4463686444   -0.7299036655    0.8394551851
H       -0.6733492982   -1.5740841980    1.4823064987
13   
From optimize.out: Frame 16 / 17, Energy=    -286.8365048754
C        1.5440404333    0.5861293134   -0.1642656935
C        0.8932240621   -0.7432938957    0.0274589318
C       -0.4118021088   -0.6570999196   -0.6948209223
C       -1.0183475571    0.6294805270    0.8815113260
C       -0.6032954815    0.9022185475   -0.5702328577
N        0.7481623825    1.5150230143   -0.5423615294
H        2.5983866781    0.7809973401    0.0292120357
H        1.4557634281   -1.6712684557    0.0633870647
H       -0.8129686200   -1.3478195967   -1.4308827970
H       -1.9834849206    0.8770013627    1.3088557403
H       -1.2899603538    1.4326196268   -1.2296229830
C       -0.4463686444   -0.7299036655    0.8394551851
H       -0.6733492982   -1.5740841980    1.4823064987
13   
From optimize.out: Frame 14 / 17, Energy=    -286.8364997532
C        1.5442807978    0.5907507708   -0.1607971962
C        0.8878798747   -0.7415753274    0.0367435647
C       -0.4072430827   -0.6605288673   -0.7078666627
C       -1.0173420369    0.6210152687    0.8788147716
C       -0.6083019145    0.8940651958   -0.5769534192
N        0.7435142274    1.5157046402   -0.5283723562
H        2.6035251598    0.7705543616    0.0198092235
H        1.4467153082   -1.6715713895    0.0935692570
H       -0.8345903781   -1.3148934805   -1.4640424679
H       -1.9833675914    0.8709436315    1.3031607164
H       -1.2932454108    1.4279223829   -1.2341598477
C       -0.4342059741   -0.7400334762    0.8324532897
H       -0.6476189794   -1.5623537106    1.5076411271
13   
From optimize.out: Frame 10 / 17, Energy=    -286.8359926413
C        1.5400063105    0.5771754723   -0.1671454547
C        0.8976185550   -0.7437913067    0.0065896981
C       -0.4212212112   -0.6562694683   -0.6763711012
C       -1.0077295506    0.6408717744    0.8966015278
C       -0.5965265217    0.9090046372   -0.5633416640
N        0.7460227823    1.5131652116   -0.5531158488
H        2.5925060654    0.7713998115    0.0287311035
H        1.4459022015   -1.6760368789    0.0682596593
H       -0.7774923134   -1.3472685751   -1.4430226484
H       -1.9936865030    0.8751861453    1.2858905900
H       -1.3029670144    1.4306563784   -1.2066250901
C       -0.4629988639   -0.7237924695    0.8376839256
H       -0.6594339363   -1.5703007322    1.4858653030
13   
From optimize.out: Frame 8 / 17, Energy=    -286.8355571031
C        1.5515623852    0.5655284822   -0.2118860092
C        0.9106294709   -0.7387420125   -0.0449280028
C       -0.4371217753   -0.6450221822   -0.6523581664
C       -0.9930836542    0.6470678594    0.9168653221
C       -0.5826180935    0.9280880308   -0.5449579257
N        0.7605435626    1.5138441297   -0.6008699257
H        2.5873918893    0.7974733670    0.0300001422
H        1.4173089524   -1.6758991163    0.1467550359
H       -0.7362103596   -1.3712322196   -1.4093641304
H       -1.9933921283    0.8619446641    1.2828624041
H       -1.3119361705    1.4454704510   -1.1686151397
C       -0.4902642567   -0.7183877549    0.8357728953
H       -0.6828098223   -1.6101336988    1.4207235002
13   
From optimize.out: Frame 7 / 17, Energy=    -286.8348247887
C        1.5831797321    0.5610534184   -0.2573727395
C        0.9452058938   -0.7385556004   -0.0878942848
C       -0.4441899682   -0.6383555548   -0.6177961449
C       -1.0103228951    0.6445403567    0.9401217704
C       -0.5668461051    0.9388437007   -0.5164718653
N        0.7944695290    1.5151897164   -0.6386338578
H        2.6068470363    0.8405724696    0.0041496736
H        1.4351437976   -1.6738504098    0.1592929914
H       -0.7132218162   -1.3914723198   -1.3467333810
H       -2.0252288364    0.8493843438    1.2725302585
H       -1.3022527041    1.4576917308   -1.1398560519
C       -0.5424082080   -0.7184100768    0.8543659818
H       -0.7603754556   -1.6466317750    1.3742976495
13   
From optimize.out: Frame 5 / 17, Energy=    -286.8234886508
C        1.6246063230    0.5616030041   -0.2961790557
C        0.9829859980   -0.7403933355   -0.1126405846
C       -0.4518548588   -0.6358699739   -0.5851924488
C       -1.0448881100    0.6396412614    0.9628719595
C       -0.5572523739    0.9443865981   -0.4855893815
N        0.8375940077    1.5193216951   -0.6599947520
H        2.6442367412    0.8798319154   -0.0418922049
H        1.4743690245   -1.6747400818    0.1469344338
H       -0.6982916908   -1.4062055159   -1.2887299667
H       -2.0738027346    0.8388988541    1.2563625284
H       -1.2928375033    1.4668155251   -1.1151323236
C       -0.5995897475   -0.7202037141    0.8759164292
H       -0.8452750755   -1.6730862321    1.3432653668
13   
From optimize.out: Frame 3 / 17, Energy=    -286.7889980948
C        1.6727189227    0.5652389613   -0.3314646004
C        1.0174910489   -0.7437421427   -0.1266689477
C       -0.4649307788   -0.6345424456   -0.5553589315
C       -1.0861607103    0.6332941771    0.9847161579
C       -0.5517142458    0.9497365670   -0.4547773498
N        0.8896535107    1.5246701005   -0.6782855082
H        2.6907833716    0.9200194281   -0.0931965935
H        1.5139297266   -1.6784557099    0.1365130566
H       -0.6924351224   -1.4181276859   -1.2335854995
H       -2.1286837349    0.8258350755    1.2368063522
H       -1.2869937664    1.4766498176   -1.0923656112
C       -0.6532839266   -0.7228388440    0.8952276811
H       -0.9203742953   -1.6977372991    1.3124397940
13   
From optimize.out: Frame 1 / 17, Energy=    -286.7157761222
C        1.7277798295    0.5733601113   -0.3620993974
C        1.0470205667   -0.7500543908   -0.1314624109
C       -0.4862104038   -0.6354420994   -0.5287343755
C       -1.1301934982    0.6263491370    1.0053338892
C       -0.5481315038    0.9562303449   -0.4250643179
N        0.9498837129    1.5306313479   -0.6960717121
H        2.7449303387    0.9676315845   -0.1454548235
H        1.5487012079   -1.6868322993    0.1338564873
H       -0.6997387423   -1.4294529270   -1.1799778301
H       -2.1857072765    0.8109105110    1.2134811791
H       -1.2849977170    1.4886416805   -1.0719139647
C       -0.7015476074   -0.7274546109    0.9110007540
H       -0.9817889068   -1.7245183897    1.2771065226
13   
C6H6N->C6H6N atoms 1-13 frame 269 charge +0.000 sz -1.000 sz^2 1.088
C        1.7866846360    0.5840977819   -0.3908816261
C        1.0642346164   -0.7493842426   -0.1305325656
C       -0.5184007843   -0.6382428111   -0.5015817938
C       -1.1705225841    0.6157968473    1.0197428224
C       -0.5371198685    0.9622017002   -0.3967708344
N        1.0139656669    1.5317716974   -0.7124651283
H        2.8007030535    1.0214662929   -0.1916733397
H        1.5699737793   -1.6889775024    0.1399044956
H       -0.7273389473   -1.4336993635   -1.1157409686
H       -2.2385013314    0.7856792828    1.1797776468
H       -1.2795308970    1.4995121402   -1.0554505258
C       -0.7393313964   -0.7351959915    0.9223964622
H       -1.0248159430   -1.7550258316    1.2332753555
13   
C6H6N->C6H6N atoms 1-13 frame 271 charge +0.000 sz -1.000 sz^2 1.139
C        1.8010816556    0.5681773433   -0.4132510732
C        1.0828864683   -0.7493022100   -0.1500786024
C       -0.5139537716   -0.6786338889   -0.4988418105
C       -1.1862889142    0.6162367415    1.0568408386
C       -0.5515428569    0.9670610341   -0.3556083323
N        1.0308594003    1.5426501665   -0.7360577313
H        2.7908691634    1.0344433603   -0.1743918430
H        1.6135317232   -1.6812010313    0.1367851727
H       -0.7383655016   -1.5005013628   -1.0866903289
H       -2.2527811315    0.7786822745    1.2111916814
H       -1.2576805779    1.5383986565   -1.0598308146
C       -0.7501824850   -0.7325267111    0.8991433637
H       -1.0684331721   -1.7034843725    1.1707894799
13   
C6H6N->C6H6N atoms 1-13 frame 272 charge +0.000 sz -1.000 sz^2 1.167
C        1.8039609798    0.5493913530   -0.4323750127
C        1.1051683582   -0.7449114657   -0.1750589312
C       -0.4925073898   -0.7266840646   -0.5043846629
C       -1.1973687249    0.6184183957    1.0977600025
C       -0.5744057220    0.9727291851   -0.3145701717
N        1.0314038359    1.5608823574   -0.7615512931
H        2.7643321915    1.0266842945   -0.1423888790
H        1.6624761399   -1.6598533239    0.1302931661
H       -0.7521386710   -1.5919361967   -1.0862654786
H       -2.2575703069    0.7812135524    1.2629139547
H       -1.2223929431    1.5782343330   -1.0620098214
C       -0.7554946900   -0.7264207644    0.8660233835
H       -1.1154630576   -1.6377476559    1.1216137438
13   
From optimize.out: Frame 2 / 21, Energy=    -286.7235159808
C        1.7823410524    0.5418395122   -0.4318130709
C        1.1140664508   -0.7376374758   -0.1938228222
C       -0.4616183252   -0.7403176625   -0.5183176938
C       -1.1849311705    0.6185607218    1.1000812076
C       -0.5901770524    0.9731473231   -0.3151900164
N        1.0022857705    1.5691221032   -0.7643208851
H        2.7345992326    0.9971918944   -0.1124439107
H        1.6783976065   -1.6404060736    0.1127086731
H       -0.7480637899   -1.6186034352   -1.1143864459
H       -2.2367392291    0.7932302323    1.2952482397
H       -1.2023265771    1.5843544524   -1.0678163725
C       -0.7501703453   -0.7230806878    0.8547569670
H       -1.1376636233   -1.6174009044    1.1553161301
13   
From optimize.out: Frame 4 / 21, Energy=    -286.7872332883
C        1.7345444603    0.5424029480   -0.4073462396
C        1.1050437026   -0.7331668492   -0.2042586238
C       -0.4287612370   -0.7170248746   -0.5344324312
C       -1.1454799736    0.6173085576    1.0632141204
C       -0.5920518676    0.9605537942   -0.3554966821
N        0.9368535617    1.5558175889   -0.7330105744
H        2.6993463523    0.9548403026   -0.0815624098
H        1.6598419235   -1.6381315621    0.0819551170
H       -0.7246533442   -1.5683653416   -1.1573499688
H       -2.1856977843    0.8111586531    1.3016134238
H       -1.2072528679    1.5545535497   -1.0854091561
C       -0.7319260368   -0.7222654516    0.8675044831
H       -1.1198068891   -1.6176813150    1.2445789416
13   
From optimize.out: Frame 6 / 21, Energy=    -286.8226899021
C        1.6917603602    0.5474083412   -0.3781871464
C        1.1036236197   -0.7322576919   -0.2170987178
C       -0.3954890108   -0.6984666479   -0.5462339449
C       -1.1101419071    0.6155806347    1.0266741730
C       -0.5864351344    0.9392730930   -0.3958307464
N        0.8615435954    1.5367548759   -0.6883570171
H        2.6685266203    0.9211964949   -0.0542152027
H        1.6528831178   -1.6404133300    0.0435430383
H       -0.7097551612   -1.5176465881   -1.1987789346
H       -2.1323379591    0.8395158846    1.3141547850
H       -1.2109786621    1.5167317903   -1.1061354103
C       -0.7240742000   -0.7214535454    0.8777126479
H       -1.1091252787   -1.6062233115    1.3227524760
13   
From optimize.out: Frame 8 / 21, Energy=    -286.8464497014
C        1.6679241217    0.5593496099   -0.3512131214
C        1.1240001287   -0.7332150468   -0.2397104718
C       -0.3600538623   -0.6915633567   -0.5493661942
C       -1.0960097580    0.6088245786    0.9953374974
C       -0.5771719988    0.9109227034   -0.4300948126
N        0.7976251089    1.5208955097   -0.6315301481
H        2.6588194116    0.9012550116   -0.0465663448
H        1.6772034544   -1.6423012672   -0.0128759022
H       -0.6957481898   -1.4747083468   -1.2327196581
H       -2.0877275053    0.8852245746    1.3400858776
H       -1.2182743828    1.4705278867   -1.1255495632
C       -0.7511678556   -0.7253855172    0.8875101445
H       -1.1394186727   -1.5898263398    1.3966926970
13   
From optimize.out: Frame 10 / 21, Energy=    -286.8617412617
C        1.6662796957    0.5713118768   -0.3381031609
C        1.1622554041   -0.7315415016   -0.2704767586
C       -0.3229846033   -0.6934736877   -0.5363881045
C       -1.1098085767    0.5961845929    0.9767733188
C       -0.5697319131    0.8815823837   -0.4448352034
N        0.7635432580    1.5140805667   -0.5787221168
H        2.6715259013    0.8914408904   -0.0663287868
H        1.7284850477   -1.6375537935   -0.0799645957
H       -0.6744182274   -1.4454314799   -1.2453108594
H       -2.0646740317    0.9337403682    1.3695768426
H       -1.2251884070    1.4220367679   -1.1341708858
C       -0.8105352884   -0.7306252168    0.8975337155
H       -1.2147482593   -1.5717517670    1.4504165951
13   
From optimize.out: Frame 12 / 21, Energy=    -286.8708357541
C        1.6700034562    0.5832391443   -0.3274993429
C        1.1993591559   -0.7296870010   -0.2982385474
C       -0.2881777178   -0.7016928962   -0.5138426285
C       -1.1354392086    0.5837138541    0.9630215135
C       -0.5618556179    0.8541088969   -0.4478289228
N        0.7444153128    1.5165351371   -0.5240864581
H        2.6897045141    0.8897779019   -0.1015814231
H        1.7837106099   -1.6296922151   -0.1455486020
H       -0.6542970943   -1.4248078897   -1.2456534406
H       -2.0467618720    0.9909396073    1.3948417114
H       -1.2283380613    1.3706885061   -1.1413258875
C       -0.8757935974   -0.7400743690    0.9043988180
H       -1.2965298796   -1.5630486768    1.4833432102
13   
From optimize.out: Frame 13 / 21, Energy=    -286.8734849495
C        1.6721781393    0.5946929630   -0.3121491586
C        1.2266381374   -0.7291734120   -0.3170231024
C       -0.2604933515   -0.7158498788   -0.4857943750
C       -1.1732401334    0.5693676044    0.9440299098
C       -0.5544752615    0.8298113569   -0.4451125403
N        0.7318055171    1.5222597649   -0.4592487261
H        2.7032668227    0.8976435244   -0.1404777049
H        1.8341750117   -1.6186921452   -0.2010676868
H       -0.6445185683   -1.4046847583   -1.2435713930
H       -2.0125548671    1.0688948268    1.4213466829
H       -1.2266362131    1.3102520616   -1.1592707733
C       -0.9406142913   -0.7537347470    0.9019103325
H       -1.3555309420   -1.5707871606    1.4964285351
13   
From optimize.out: Frame 15 / 21, Energy=    -286.8752931953
C        1.6690066348    0.6029804407   -0.2933085980
C        1.2414080595   -0.7303464983   -0.3287420676
C       -0.2460472181   -0.7333296010   -0.4589673210
C       -1.2265800310    0.5542579548    0.9147220040
C       -0.5519628922    0.8112377276   -0.4419119776
N        0.7182647063    1.5251009494   -0.3923382096
H        2.7055335151    0.9103024435   -0.1650602069
H        1.8726129726   -1.6071479606   -0.2437086582
H       -0.6420841507   -1.3840306453   -1.2469773333
H       -1.9511485871    1.1536659151    1.4584908098
H       -1.2131843046    1.2511794181   -1.1941119384
C       -1.0034697895   -0.7661654893    0.8885741760
H       -1.3723489153   -1.5877046547    1.5033393208
13   
From optimize.out: Frame 18 / 21, Energy=    -286.8754023048
C        1.6576414221    0.6058119028   -0.2734358406
C        1.2387574853   -0.7326602894   -0.3359557711
C       -0.2498150771   -0.7481301502   -0.4459958732
C       -1.2906174412    0.5448704930    0.8754470605
C       -0.5587620416    0.8011239477   -0.4445507285
N        0.7014609326    1.5257531394   -0.3360736066
H        2.6938987025    0.9204747192   -0.1575480717
H        1.8852663266   -1.6008515759   -0.2699867945
H       -0.6446087872   -1.3688202631   -1.2611144700
H       -1.8630950203    1.2099516619    1.5144771056
H       -1.1819446609    1.2083501227   -1.2495220340
C       -1.0535596795   -0.7717433067    0.8657361997
H       -1.3346221612   -1.5941304012    1.5185228245
13   
From optimize.out: Frame 20 / 21, Energy=    -286.8754496250
C        1.6500234617    0.6054662198   -0.2623269699
C        1.2325746745   -0.7329617889   -0.3362170362
C       -0.2559647801   -0.7503191053   -0.4537266461
C       -1.3115348783    0.5419118886    0.8585487964
C       -0.5677066057    0.7997117074   -0.4520205131
N        0.6917772394    1.5248709807   -0.3214182596
H        2.6847934793    0.9219090544   -0.1378675780
H        1.8797572563   -1.6011290235   -0.2742709021
H       -0.6496916009   -1.3699829537   -1.2702100914
H       -1.8178740554    1.2180200326    1.5408240070
H       -1.1692559991    1.2031145147   -1.2759942128
C       -1.0616590323   -0.7720564340    0.8550882347
H       -1.3052391595   -1.5885550930    1.5295911710
13   
From optimize.out: Frame 1 / 3, Energy=    -286.8754359123
C        1.6500234617    0.6054662198   -0.2623269699
C        1.2325746745   -0.7329617889   -0.3362170362
C       -0.2559647801   -0.7503191053   -0.4537266461
C       -1.3115348783    0.5419118886    0.8585487964
C       -0.5677066057    0.7997117074   -0.4520205131
N        0.6917772394    1.5248709807   -0.3214182596
H        2.6847934793    0.9219090544   -0.1378675780
H        1.8797572563   -1.6011290235   -0.2742709021
H       -0.6496916009   -1.3699829537   -1.2702100914
H       -1.8178740554    1.2180200326    1.5408240070
H       -1.1692559991    1.2031145147   -1.2759942128
C       -1.0616590323   -0.7720564340    0.8550882347
H       -1.3052391595   -1.5885550930    1.5295911710
13   
From optimize.out: Frame 2 / 3, Energy=    -286.8754381820
C        1.6498617841    0.6053413523   -0.2614928007
C        1.2319943246   -0.7326085635   -0.3358821724
C       -0.2563921013   -0.7498130883   -0.4545399288
C       -1.3114987506    0.5414231106    0.8580309863
C       -0.5681885622    0.7998199937   -0.4528860814
N        0.6915153921    1.5243072685   -0.3212811176
H        2.6848606211    0.9212095018   -0.1375320144
H        1.8788730690   -1.6008780315   -0.2741638609
H       -0.6491931915   -1.3694793915   -1.2713614457
H       -1.8169574232    1.2177279921    1.5407014661
H       -1.1698818898    1.2036817918   -1.2764587002
C       -1.0612319078   -0.7723013138    0.8555262725
H       -1.3037613645   -1.5884306221    1.5313393971
