13   
From optimize.out: Frame 1 / 3, Energy=    -286.8505782439
C        0.0323354011   -0.5318852731   -0.1425790934
C        1.5581502613   -0.4987224907   -0.0361758984
C        2.3714477397   -1.3318815971   -0.6397513775
C       -1.3602315908    1.2889386344    0.1048715793
C       -1.3435322768    0.4249103373    1.2951205846
N       -0.5751515175   -0.6071782017    1.1970260081
H       -0.2672893449   -1.4309651605   -0.6982099671
H        1.9490515043    0.3013655335    0.5947974000
H        2.3009105776   -2.1896444090   -1.2979591369
H       -1.9383258056    2.1987825375   -0.0102784924
H       -1.9221201643    0.6059336445    2.1999768231
C       -0.5304462436    0.7146612875   -0.7851427860
H       -0.2747985402    1.0556851571   -1.7816956437
13   
From optimize.out: Frame 2 / 3, Energy=    -286.8505816574
C        0.0319714848   -0.5333175667   -0.1427400561
C        1.5576113711   -0.4988355063   -0.0351273078
C        2.3711780219   -1.3299123757   -0.6406536961
C       -1.3603029260    1.2874427662    0.1039385723
C       -1.3430895248    0.4247886342    1.2952133943
N       -0.5766590089   -0.6087100396    1.1965567815
H       -0.2668709717   -1.4316102531   -0.6999986983
H        1.9464765813    0.3017313693    0.5964272419
H        2.2991653582   -2.1878093685   -1.2978372333
H       -1.9380964353    2.1976527738   -0.0111081502
H       -1.9187150676    0.6090736045    2.2016245916
C       -0.5296299095    0.7136112444   -0.7852588237
H       -0.2730389731    1.0558947172   -1.7810366164
