13   
Frame   0 IRC: Energy =  -286.8735160000 ; +0.0000 kcal/mol
C        1.4883011088    0.5334039584   -0.0862221357
C        0.7321102198   -0.8091779327   -0.0266360973
C       -0.2106094674   -0.5081042567   -1.1963852389
C       -1.1344824217    0.3513739740    0.7155536687
C       -0.6243557815    0.8518053175   -0.6461538338
N        0.7312581334    1.5028126048   -0.4317572911
H        2.5402418846    0.6702635489    0.1546975354
H        1.3280535015   -1.7211524973   -0.0226906760
H       -0.9110403504   -1.2404155909   -1.5921780032
H       -1.9757290738    0.7676426317    1.2571562581
H       -1.2931065298    1.4918874087   -1.2179329529
C       -0.3189620569   -0.6500968334    1.0918336777
H       -0.3516791671   -1.2402423334    2.0007150884
13   
Frame   1 IRC: Energy =  -286.8718141378 ; +1.0679 kcal/mol
C        1.4888536359    0.5501170572   -0.0926884545
C        0.7416185415   -0.7998203055   -0.0153599691
C       -0.2038015600   -0.5183916195   -1.1847623706
C       -1.1185418510    0.3737731515    0.7287237061
C       -0.6214854546    0.8519449394   -0.6453883047
N        0.7279887496    1.5111145643   -0.4545875487
H        2.5429053088    0.7022028757    0.1282956786
H        1.3523625992   -1.7015477068    0.0077593317
H       -0.8998161093   -1.2707397494   -1.5521647844
H       -1.9220982396    0.8283243849    1.2977976577
H       -1.3050934509    1.4729439253   -1.2206750384
C       -0.3337881010   -0.6608224507    1.0829407118
H       -0.4491040687   -1.3390990663    1.9201093844
13   
Frame   2 IRC: Energy =  -286.8670418841 ; +4.0626 kcal/mol
C        1.4894211947    0.5614049235   -0.1048437022
C        0.7478060342   -0.7889802816   -0.0021060307
C       -0.2102224983   -0.5350018259   -1.1616072816
C       -1.1012977377    0.4094173195    0.7597282578
C       -0.6221695881    0.8514892749   -0.6401030372
N        0.7248624545    1.5131857669   -0.4841877942
H        2.5413452870    0.7312650262    0.1157700657
H        1.3670750595   -1.6839114159    0.0376943096
H       -0.8734969719   -1.3103363755   -1.5443140287
H       -1.8804891323    0.8843861673    1.3509197121
H       -1.3115744816    1.4530759605   -1.2286974649
C       -0.3403787159   -0.6551230072    1.0849937370
H       -0.5308809038   -1.4308715327    1.8167532574
13   
Frame   3 IRC: Energy =  -286.8564933591 ; +10.6819 kcal/mol
C        1.5016952132    0.5682488017   -0.1162110555
C        0.7763616906   -0.7789612961    0.0107226536
C       -0.2692844704   -0.5735762084   -1.0640487696
C       -1.0988941366    0.4541601486    0.7860391050
C       -0.6265602638    0.8563908676   -0.6261833923
N        0.7245121266    1.5083732332   -0.5000580606
H        2.5503824895    0.7533334873    0.1206892773
H        1.3900870457   -1.6820393856    0.0440674319
H       -0.8470679247   -1.3403968907   -1.5629849268
H       -1.8731184613    0.9224151211    1.3904401852
H       -1.3059757971    1.4407292536   -1.2440388596
C       -0.3585459218   -0.6549038044    1.0454612548
H       -0.5635915899   -1.4737733280    1.7161051565
13   
Frame   4 IRC: Energy =  -286.8439418120 ; +18.5581 kcal/mol (Transition State)
C        1.5135843042    0.5725792168   -0.1238930510
C        0.8247801701   -0.7653240315    0.0089933877
C       -0.3328176112   -0.6212367923   -0.9266337333
C       -1.1021434886    0.5025294898    0.7885072200
C       -0.6306996555    0.8662588910   -0.6161766837
N        0.7214969825    1.5061660078   -0.5031929144
H        2.5554654574    0.7623608855    0.1255878589
H        1.4033604507   -1.6852743246    0.0435717456
H       -0.8229155014   -1.3416780854   -1.5648631081
H       -1.8742191076    0.9407570468    1.4044519443
H       -1.3033801797    1.4363854340   -1.2541340825
C       -0.3820274333   -0.6879518409    0.9522500864
H       -0.5704843877   -1.4855718971    1.6655313301
13   
Frame   5 IRC: Energy =  -286.8520928985 ; +13.4432 kcal/mol
C        1.5221095565    0.5782398467   -0.1339652960
C        0.8686698953   -0.7546501299   -0.0017324346
C       -0.3856160699   -0.6652170333   -0.7924850121
C       -1.0935281489    0.5502176467    0.7968707618
C       -0.6319388799    0.8750756955   -0.6085460634
N        0.7182155350    1.5078702980   -0.5048834906
H        2.5597009749    0.7719257826    0.1272349173
H        1.4184547111   -1.6879866302    0.0430612598
H       -0.7980262267   -1.3377668767   -1.5442914300
H       -1.8772820524    0.9566517046    1.4133269317
H       -1.2999915234    1.4307506882   -1.2650918379
C       -0.4234806604   -0.7283677167    0.8566471315
H       -0.5772871113   -1.4967432755    1.6138545625
13   
Frame   6 IRC: Energy =  -286.8572115269 ; +10.2312 kcal/mol
C        1.5263742721    0.5853411427   -0.1456901467
C        0.8895940223   -0.7496862903    0.0015864040
C       -0.4047410337   -0.6776512971   -0.7281191637
C       -1.0656315643    0.5902679534    0.8331046441
C       -0.6268427383    0.8806239915   -0.5967770435
N        0.7191442618    1.5110721797   -0.5200918622
H        2.5634568488    0.7935207475    0.1088576897
H        1.4493470625   -1.6789912460    0.0488146549
H       -0.7832328109   -1.3578423775   -1.4866855195
H       -1.8775125469    0.9888532273    1.4240811306
H       -1.2947186952    1.4117309663   -1.2745920606
C       -0.4661584019   -0.7414798561    0.8195289487
H       -0.6290786762   -1.5557591413    1.5159823243
13   
Frame   7 IRC: Energy =  -286.8582040866 ; +9.6084 kcal/mol
C        1.5241478313    0.5962398432   -0.1427356736
C        0.8982660888   -0.7440179209    0.0178037764
C       -0.3921010257   -0.6814290576   -0.7234523444
C       -1.0865410008    0.5776133463    0.8243736233
C       -0.6298345916    0.8767166870   -0.5944738764
N        0.7121562190    1.5145345159   -0.5257251967
H        2.5687146902    0.8117228011    0.0764861912
H        1.4744376121   -1.6622279519    0.0767555690
H       -0.7717688382   -1.3768046206   -1.4652491120
H       -1.8127978167    1.0466482875    1.4718613906
H       -1.3008431046    1.3991933282   -1.2746007595
C       -0.4868437696   -0.7542228436    0.8091108833
H       -0.6969922944   -1.6039664146    1.4498455288
13   
Frame   8 IRC: Energy =  -286.8594011204 ; +8.8572 kcal/mol
C        1.5068791392    0.6039563001   -0.1269386138
C        0.8969820062   -0.7426351553    0.0124973856
C       -0.3863175480   -0.6930920049   -0.7361590865
C       -1.1376401218    0.5472647021    0.7964145636
C       -0.6449182081    0.8618651626   -0.6079444646
N        0.6869031063    1.5166072123   -0.5087061228
H        2.5465038777    0.8293691215    0.1051565746
H        1.4789746980   -1.6558421584    0.0842604006
H       -0.7528114608   -1.3884164024   -1.4839215646
H       -1.6721116080    1.1252453207    1.5397294781
H       -1.3058647041    1.3822449218   -1.3006989846
C       -0.5119380637   -0.7675772816    0.7914111354
H       -0.7046411128   -1.6189897385    1.4348992990
13   
Frame   9 IRC: Energy =  -286.8602270000 ; +8.3390 kcal/mol
C        1.4849398096    0.6123058407   -0.1105721402
C        0.8881624123   -0.7416194639    0.0133387867
C       -0.3891806233   -0.7036322885   -0.7477046046
C       -1.1564270568    0.5371416062    0.7870898174
C       -0.6603904296    0.8480602863   -0.6202063315
N        0.6610939129    1.5173791322   -0.5034005078
H        2.5165303500    0.8505074702    0.1420375508
H        1.4789169888   -1.6484621524    0.0946325372
H       -0.7306026875   -1.4001950407   -1.5065561110
H       -1.5111754722    1.1848369585    1.5820610578
H       -1.3219624020    1.3611207714   -1.3182672804
C       -0.5352951545   -0.7817988361    0.7734237246
H       -0.7246096476   -1.6356442840    1.4141235010
