13   
Frame   0 IRC: Energy =  -286.9462030877 ; +0.0000 kcal/mol
C        1.4590727568    0.8320084931   -0.2138011157
C        0.2495064295   -1.4019177979   -0.3183714406
C       -1.0125901323   -1.0486075364    0.0633252545
C       -1.4714426484    0.2703698080    0.4188854643
C       -0.7482559236    1.4503701221    0.4515044901
N        0.5451336609    1.7504915536    0.1825522642
H        2.4413332823    1.2773898842   -0.3788855924
H        0.4234767287   -2.4495068089   -0.5534868658
H       -1.7588205901   -1.8387162351    0.1066704063
H       -2.5188970166    0.3563580719    0.6965546020
H       -1.3182673966    2.3304766482    0.7532831342
C        1.3904792442   -0.5308395084   -0.4453777349
H        2.3192716050   -0.9978766949   -0.7628528659
13   
Frame   1 IRC: Energy =  -286.9457643290 ; +0.2753 kcal/mol
C        1.4542341453    0.8409560800   -0.2036559363
C        0.2502870218   -1.3980386018   -0.3226375717
C       -1.0110915668   -1.0583215563    0.0792058212
C       -1.4666454271    0.2739000660    0.4160309257
C       -0.7538444778    1.4438871397    0.4540538076
N        0.5685495443    1.7467648114    0.2185176681
H        2.4423659702    1.2722988695   -0.3790852013
H        0.4255679886   -2.4450424722   -0.5631559995
H       -1.7534772599   -1.8490755911    0.1364525107
H       -2.5210582999    0.3650978909    0.6675760749
H       -1.3221631968    2.3305210376    0.7323555859
C        1.3779078130   -0.5309432966   -0.4591729936
H        2.3093677451   -0.9920043771   -0.7764846919
13   
Frame   2 IRC: Energy =  -286.9452606938 ; +0.5914 kcal/mol
C        1.4599068698    0.8395749216   -0.1737595395
C        0.2514059232   -1.3900149365   -0.3335550745
C       -1.0043285516   -1.0626651392    0.1165099599
C       -1.4674560162    0.2732674051    0.4174561854
C       -0.7606201125    1.4442689478    0.4386628936
N        0.5835894508    1.7292973141    0.2683309890
H        2.4615727206    1.2569329378   -0.3009964761
H        0.4244870159   -2.4373520975   -0.5757994855
H       -1.7324925018   -1.8627151065    0.2079802817
H       -2.5282698571    0.3686568664    0.6416331599
H       -1.3346305854    2.3428622001    0.6590128001
C        1.3618028928   -0.5242867093   -0.5075786414
H        2.2850327514   -0.9778266040   -0.8578970526
13   
Frame   3 IRC: Energy =  -286.9445920354 ; +1.0110 kcal/mol
C        1.4648016429    0.8357020380   -0.1457542567
C        0.2535241233   -1.3821361162   -0.3410599426
C       -0.9960373014   -1.0634939160    0.1511042143
C       -1.4697964162    0.2726506164    0.4169834055
C       -0.7666048105    1.4455230936    0.4199527447
N        0.5916878905    1.7097226550    0.3091561416
H        2.4796946919    1.2355108587   -0.2137454688
H        0.4253371611   -2.4300344119   -0.5830935611
H       -1.7097927954   -1.8717544974    0.2758276006
H       -2.5351236030    0.3686949866    0.6204214424
H       -1.3414733180    2.3541579520    0.5894800519
C        1.3461216489   -0.5153950564   -0.5542412974
H        2.2576610859   -0.9591482024   -0.9450310744
13   
Frame   4 IRC: Energy =  -286.9437969271 ; +1.5099 kcal/mol
C        1.4687781800    0.8293706243   -0.1176781497
C        0.2564118781   -1.3750531958   -0.3452927910
C       -0.9862982863   -1.0619923550    0.1814932884
C       -1.4726137055    0.2725994868    0.4135296329
C       -0.7712692838    1.4470496679    0.3997178684
N        0.5954459733    1.6897716903    0.3441265825
H        2.4945847144    1.2069760231   -0.1233255828
H        0.4292898136   -2.4241215320   -0.5826774133
H       -1.6855843399   -1.8770377520    0.3399268246
H       -2.5414047281    0.3671054874    0.5999207483
H       -1.3437408712    2.3639571556    0.5260632581
C        1.3303426033   -0.5043334299   -0.5982360297
H        2.2260580521   -0.9342918707   -1.0375682367
13   
Frame   5 IRC: Energy =  -286.9427839879 ; +2.1455 kcal/mol
C        1.4713415823    0.8213020204   -0.0915215844
C        0.2601958392   -1.3694848081   -0.3456567471
C       -0.9755496542   -1.0589640721    0.2064431706
C       -1.4753961030    0.2734099610    0.4064289202
C       -0.7742808148    1.4485200819    0.3803395615
N        0.5964417930    1.6703844509    0.3741247020
H        2.5056595239    1.1710734246   -0.0317726900
H        0.4379262897   -2.4206742845   -0.5710437776
H       -1.6606661849   -1.8790069540    0.3990716140
H       -2.5471219787    0.3651736723    0.5768703922
H       -1.3420860964    2.3722479519    0.4720509743
C        1.3144578266   -0.4914860182   -0.6398347568
H        2.1890779775   -0.9024954262   -1.1354997788
13   
Frame   6 IRC: Energy =  -286.9413335714 ; +3.0557 kcal/mol
C        1.4730886436    0.8113946353   -0.0655256898
C        0.2648890040   -1.3660622925   -0.3420121160
C       -0.9643592924   -1.0551600597    0.2256701958
C       -1.4776436032    0.2750657978    0.3951908052
C       -0.7754846263    1.4497070319    0.3633292253
N        0.5961972899    1.6515443528    0.4013405315
H        2.5123811465    1.1301930681    0.0557583278
H        0.4521419824   -2.4201617979   -0.5466334644
H       -1.6362367642   -1.8780237131    0.4521700498
H       -2.5521014772    0.3637660223    0.5486167290
H       -1.3371070675    2.3792693923    0.4288249419
C        1.2988712190   -0.4778759976   -0.6783214965
H        2.1453635454   -0.8636564395   -1.2384080395
13   
Frame   7 IRC: Energy =  -286.9392198240 ; +4.3821 kcal/mol
C        1.4741543319    0.8007805344   -0.0414730896
C        0.2703002244   -1.3647451679   -0.3352978709
C       -0.9531256319   -1.0514170021    0.2401506482
C       -1.4788156895    0.2771123069    0.3803706736
C       -0.7748401371    1.4504208862    0.3494146401
N        0.5959571915    1.6335315130    0.4268959519
H        2.5153238733    1.0854747431    0.1379940978
H        0.4715400742   -2.4218136332   -0.5112847810
H       -1.6129824687   -1.8749105438    0.4994265490
H       -2.5559028299    0.3630372826    0.5149235126
H       -1.3296010979    2.3850876276    0.3957865094
C        1.2833476984   -0.4637843606   -0.7144629942
H        2.0946444612   -0.8187741862   -1.3424438468
13   
Frame   8 IRC: Energy =  -286.9363437232 ; +6.1868 kcal/mol
C        1.4750096410    0.7891284150   -0.0172199727
C        0.2762018170   -1.3654481535   -0.3264673608
C       -0.9418760374   -1.0486928872    0.2521547427
C       -1.4780409309    0.2788971040    0.3629239208
C       -0.7720508268    1.4503879583    0.3377309603
N        0.5966891694    1.6162352386    0.4530029660
H        2.5155393536    1.0390648584    0.2125046159
H        0.4944757516   -2.4245102486   -0.4699555702
H       -1.5912191212   -1.8707223598    0.5421113170
H       -2.5576620052    0.3630502043    0.4763974161
H       -1.3200735823    2.3895437366    0.3689168295
C        1.2671906925   -0.4493501870   -0.7474194370
H        2.0358160787   -0.7675836793   -1.4446804275
13   
Frame   9 IRC: Energy =  -286.9328024577 ; +8.4090 kcal/mol
C        1.4755605102    0.7769639465    0.0061643957
C        0.2826251129   -1.3671746417   -0.3165980512
C       -0.9305451050   -1.0476941030    0.2640827320
C       -1.4747030936    0.2797328908    0.3444238459
C       -0.7667671702    1.4493214682    0.3277639007
N        0.5989818356    1.5998989793    0.4806053656
H        2.5139882137    0.9900149167    0.2799758005
H        0.5196854377   -2.4266643984   -0.4281775220
H       -1.5705675486   -1.8666837025    0.5819357543
H       -2.5567829002    0.3635647706    0.4341422010
H       -1.3087719315    2.3923614205    0.3440654748
C        1.2489153889   -0.4336381733   -0.7769136198
H        1.9683812500   -0.7100033739   -1.5414702772
13   
Frame  10 IRC: Energy =  -286.9288379409 ; +10.8968 kcal/mol
C        1.4753232398    0.7631944503    0.0298238453
C        0.2895236408   -1.3684665568   -0.3071814160
C       -0.9191254351   -1.0487046654    0.2778732432
C       -1.4686842843    0.2791504074    0.3262259670
C       -0.7585609434    1.4469772581    0.3186620202
N        0.6028936310    1.5838290963    0.5111249490
H        2.5117110895    0.9377871079    0.3385035646
H        0.5476732246   -2.4264518855   -0.3914129182
H       -1.5503576027   -1.8638784210    0.6204183987
H       -2.5530601827    0.3643587966    0.3891969255
H       -1.2949841302    2.3936776344    0.3174023305
C        1.2261668168   -0.4155853493   -0.8015714352
H        1.8914809359   -0.6458878731   -1.6290654746
13   
Frame  11 IRC: Energy =  -286.9246767224 ; +13.5080 kcal/mol
C        1.4732973888    0.7495304574    0.0501338879
C        0.2969159791   -1.3657153577   -0.2971084609
C       -0.9067688453   -1.0510374588    0.2966311513
C       -1.4601088636    0.2758726604    0.3103493935
C       -0.7464174446    1.4422317871    0.3122747161
N        0.6086675291    1.5674504255    0.5452505567
H        2.5083338681    0.8795268299    0.3859788984
H        0.5786416502   -2.4196634486   -0.3645064334
H       -1.5304713303   -1.8633751923    0.6562065125
H       -2.5466843962    0.3622823390    0.3406482804
H       -1.2756043424    2.3931844258    0.2858421827
C        1.1955114204   -0.3929052591   -0.8201044838
H        1.8046873867   -0.5773822086   -1.7015962013
13   
Frame  12 IRC: Energy =  -286.9197961399 ; +16.5706 kcal/mol
C        1.4807913893    0.7345272044    0.0694295591
C        0.3095425300   -1.3743846885   -0.2806438589
C       -0.8983873087   -1.0527685554    0.2911971584
C       -1.4531790265    0.2757600018    0.2912200565
C       -0.7387256677    1.4405942579    0.3003800631
N        0.6159938555    1.5608667706    0.5493047469
H        2.5081656132    0.8377727526    0.4394679378
H        0.6114022358   -2.4245458318   -0.3088362172
H       -1.5240370988   -1.8617370284    0.6622375718
H       -2.5361018196    0.3623593408    0.3206257419
H       -1.2640207693    2.3912758939    0.2773331678
C        1.1867749731   -0.3860164018   -0.8311653982
H        1.7017810937   -0.5037037161   -1.7805505290
13   
Frame  13 IRC: Energy =  -286.9150257875 ; +19.5641 kcal/mol
C        1.4897637361    0.7185972709    0.0866565521
C        0.3224383504   -1.3836169708   -0.2663755188
C       -0.8899564670   -1.0551914458    0.2816115694
C       -1.4450984183    0.2749272156    0.2719293879
C       -0.7297449790    1.4391999544    0.2870417530
N        0.6239041962    1.5543717922    0.5467103580
H        2.5064729357    0.7958796302    0.4905040621
H        0.6438612806   -2.4275994466   -0.2547030222
H       -1.5165252996   -1.8594853904    0.6642245580
H       -2.5260014531    0.3622386868    0.3082621170
H       -1.2535568188    2.3895912850    0.2720937655
C        1.1855418699   -0.3831676102   -0.8396071547
H        1.5889010669   -0.4257449711   -1.8483484273
13   
Frame  14 IRC: Energy =  -286.9107359771 ; +22.2560 kcal/mol
C        1.4975866649    0.7002802099    0.1002176371
C        0.3364598262   -1.3903120595   -0.2567193917
C       -0.8810760238   -1.0565329282    0.2688104655
C       -1.4370402997    0.2737292294    0.2522634152
C       -0.7203343677    1.4384915334    0.2721948545
N        0.6315410760    1.5467181250    0.5395269760
H        2.5001775625    0.7469718300    0.5408898486
H        0.6786095206   -2.4252892624   -0.2019877224
H       -1.5059944417   -1.8563595320    0.6646183897
H       -2.5166375215    0.3619046533    0.3037289137
H       -1.2438571779    2.3886498269    0.2698359434
C        1.1892524611   -0.3823119321   -0.8514624837
H        1.4713127209   -0.3459396935   -1.9019168458
13   
Frame  15 IRC: Energy =  -286.9070817828 ; +24.5490 kcal/mol
C        1.5015936290    0.6778502612    0.1090804253
C        0.3518747881   -1.3912918186   -0.2536930645
C       -0.8722606047   -1.0550358090    0.2520031946
C       -1.4303991574    0.2728688743    0.2314941252
C       -0.7112407702    1.4393962039    0.2552044289
N        0.6368231722    1.5370920461    0.5278303624
H        2.4830820326    0.6822335188    0.5945461062
H        0.7193839848   -2.4125433791   -0.1469069940
H       -1.4911278887   -1.8512329278    0.6635045852
H       -2.5088306666    0.3618690947    0.3105896995
H       -1.2355086808    2.3896237138    0.2714432450
C        1.1940945315   -0.3805230199   -0.8723122393
H        1.3625156302   -0.2703067583   -1.9427838745
13   
Frame  16 IRC: Energy =  -286.9037130170 ; +26.6629 kcal/mol
C        1.4986245635    0.6504499388    0.1129674466
C        0.3676186883   -1.3836405676   -0.2581483966
C       -0.8655940847   -1.0487518691    0.2301530698
C       -1.4283146185    0.2734647139    0.2105347076
C       -0.7053599351    1.4428037912    0.2365196183
N        0.6382520263    1.5256674011    0.5113998142
H        2.4484253915    0.5972131085    0.6530365220
H        0.7670138109   -2.3828414129   -0.0850417003
H       -1.4736946338   -1.8443359505    0.6577138641
H       -2.5032221127    0.3628147268    0.3343848832
H       -1.2289220247    2.3932706062    0.2765660022
C        1.1983843472   -0.3762220914   -0.9034063295
H        1.2867885819   -0.2098923948   -1.9766795015
13   
Frame  17 IRC: Energy =  -286.8999350335 ; +29.0337 kcal/mol
C        1.4896527773    0.6189282883    0.1142456391
C        0.3813193296   -1.3678021305   -0.2667583368
C       -0.8637105305   -1.0389304606    0.2056995824
C       -1.4321984012    0.2750672421    0.1932941602
C       -0.7027995815    1.4472497192    0.2193473182
N        0.6357365801    1.5134120462    0.4921042819
H        2.3987719917    0.5021192862    0.7096474293
H        0.8154199785   -2.3354180668   -0.0180473716
H       -1.4588375927   -1.8387661781    0.6425989047
H       -2.4998477592    0.3643338045    0.3737550200
H       -1.2224022101    2.3992091982    0.2805857828
C        1.2039211632   -0.3708818595   -0.9384142562
H        1.2549742548   -0.1685208893   -2.0080581539
13   
Frame  18 IRC: Energy =  -286.8952200906 ; +31.9923 kcal/mol
C        1.4771290885    0.5817404571    0.1156558294
C        0.3933230136   -1.3451051650   -0.2742043299
C       -0.8661674813   -1.0269509676    0.1834672542
C       -1.4426588307    0.2772354339    0.1844463123
C       -0.7041194472    1.4510211424    0.2063859617
N        0.6319326820    1.5005266212    0.4712520693
H        2.3432209650    0.4070933982    0.7578938214
H        0.8596097568   -2.2739159606    0.0480402872
H       -1.4492926966   -1.8377138708    0.6163274408
H       -2.4992776665    0.3648176469    0.4217109265
H       -1.2135317923    2.4067740897    0.2787815837
C        1.2135799057   -0.3663816644   -0.9724246050
H        1.2562525029   -0.1391411610   -2.0373325515
13   
Frame  19 IRC: Energy =  -286.8892648455 ; +35.7293 kcal/mol
C        1.4555938586    0.5311826277    0.1260922907
C        0.4098805668   -1.3057848160   -0.2671447048
C       -0.8743873851   -1.0075892227    0.1730471987
C       -1.4579246313    0.2751675388    0.1879415949
C       -0.6993503765    1.4528497439    0.2009182923
N        0.6210208087    1.4838506593    0.4426965968
H        2.2942402838    0.3187935852    0.7920948414
H        0.8978577205   -2.2075023529    0.1009112729
H       -1.4455711457   -1.8402234110    0.5770920444
H       -2.5091083915    0.3643055334    0.4695726525
H       -1.2039135495    2.4157546964    0.2691239181
C        1.2313840847   -0.3672375531   -1.0065297537
H        1.2802781567   -0.1135670291   -2.0658162441
13   
Frame  20 IRC: Energy =  -286.8816610876 ; +40.5008 kcal/mol
C        1.4159695733    0.4430879874    0.1518079939
C        0.4394748840   -1.2430338586   -0.2298644659
C       -0.8864082931   -0.9897484306    0.1709845314
C       -1.4776667232    0.2733612753    0.2024725582
C       -0.6998615694    1.4526076325    0.2026199723
N        0.6155805384    1.4757481675    0.4095071769
H        2.2635355184    0.2605352124    0.8104127526
H        0.9190682431   -2.1539235981    0.1230397560
H       -1.4487159416   -1.8447551649    0.5386392576
H       -2.5196571902    0.3641456382    0.5062039325
H       -1.1950377827    2.4195767013    0.2501244614
C        1.2559165297   -0.3656471679   -1.0420463942
H        1.3178022135   -0.0919543944   -2.0939015328
13   
Frame  21 IRC: Energy =  -286.8752639406 ; +44.5150 kcal/mol
C        1.3735492891    0.3516108450    0.1823127015
C        0.4674625215   -1.1769110753   -0.1941683293
C       -0.9071747158   -0.9747611216    0.1734012866
C       -1.4937090734    0.2645832111    0.2299053860
C       -0.6928236751    1.4526401287    0.2041399414
N        0.6074937307    1.4714569400    0.3790343731
H        2.2401591198    0.2197883532    0.8277228675
H        0.9242479853   -2.1166282463    0.1152558688
H       -1.4566160167   -1.8519056331    0.5108632096
H       -2.5297018027    0.3673201103    0.5485902024
H       -1.1878665917    2.4227350420    0.2085447699
C        1.2752002226   -0.3577553921   -1.0721461274
H        1.3797790063   -0.0721731620   -2.1134561501
13   
Frame  22 IRC: Energy =  -286.8708530538 ; +47.2829 kcal/mol
C        1.3471689923    0.2885987718    0.2091022432
C        0.4729292737   -1.1312248167   -0.1800983720
C       -0.9287094760   -0.9702719788    0.1905034048
C       -1.5064976977    0.2586075353    0.2775051090
C       -0.6884846125    1.4479116619    0.2024372071
N        0.6056284722    1.4655899022    0.3551607798
H        2.2226352059    0.1829199032    0.8486725624
H        0.9222030781   -2.0932140325    0.0707144121
H       -1.4713975366   -1.8636090694    0.4973689099
H       -2.5393453303    0.3773397170    0.6006532814
H       -1.1775756686    2.4187315052    0.1330311452
C        1.2740998697   -0.3350543094   -1.0903415773
H        1.4673454298   -0.0463247897   -2.1147091055
13   
Frame  23 IRC: Energy =  -286.8655010841 ; +50.6413 kcal/mol
C        1.3393210264    0.2438676848    0.2299535415
C        0.4669740019   -1.0968999701   -0.1633482163
C       -0.9475227304   -0.9725382154    0.2305810798
C       -1.5149121228    0.2527604536    0.3379096549
C       -0.6802893088    1.4351051748    0.1972470398
N        0.6128797149    1.4569159633    0.3133674854
H        2.2195411834    0.1567336621    0.8694826232
H        0.9272021284   -2.0712019698    0.0023105953
H       -1.4930545192   -1.8808459791    0.4878431422
H       -2.5554767415    0.3881679799    0.6302598300
H       -1.1586957283    2.4032691804    0.0647607770
C        1.2456262289   -0.3015543710   -1.1014528578
H        1.5384068674   -0.0137795936   -2.0989146950
13   
Frame  24 IRC: Energy =  -286.8558442922 ; +56.7010 kcal/mol
C        1.3480725551    0.1981820699    0.2564489920
C        0.4662421909   -1.0697621956   -0.1416860790
C       -0.9560351149   -0.9739747394    0.2645814921
C       -1.5202251359    0.2474261071    0.3869757921
C       -0.6768502163    1.4164422150    0.1877839656
N        0.6213099831    1.4295786858    0.2158398948
H        2.2418724005    0.1422449811    0.8946310161
H        0.9359015958   -2.0490166550   -0.0569892690
H       -1.5016923528   -1.8909858837    0.4784463910
H       -2.5688129078    0.3900218214    0.6416208752
H       -1.1410958608    2.3887904479    0.0485819025
C        1.1866328496   -0.2422244049   -1.1034424026
H        1.5646800135    0.0132775504   -2.0727925709
13   
Frame  25 IRC: Energy =  -286.8400530322 ; +66.6102 kcal/mol
C        1.3641105141    0.1555988120    0.2912652881
C        0.4695711808   -1.0533925135   -0.1308064388
C       -0.9571764989   -0.9769057366    0.2763998277
C       -1.5212528104    0.2503166946    0.4091743970
C       -0.6870243429    1.4010060788    0.1934862139
N        0.6338052571    1.3762552849    0.0977144939
H        2.2670803448    0.1318137222    0.9099556004
H        0.9403204296   -2.0366579857   -0.0916608164
H       -1.5023076995   -1.8966214161    0.4727054223
H       -2.5718433400    0.3885721221    0.6490231958
H       -1.1329030134    2.3836634458    0.0617323273
C        1.1346685263   -0.1551105819   -1.0880530082
H        1.5629514524    0.0314620734   -2.0509365030
13   
Frame  26 IRC: Energy =  -286.8362324807 ; +69.0077 kcal/mol (Transition State)
C        1.3814731740    0.1208582517    0.3246753400
C        0.4706322418   -1.0445573824   -0.1228309077
C       -0.9546673112   -0.9847754410    0.2795606114
C       -1.5209148578    0.2602438229    0.4183926608
C       -0.7096664280    1.3868508067    0.2029249145
N        0.6607462420    1.3129116340   -0.0171258153
H        2.2859389090    0.1224186014    0.9169907882
H        0.9419430250   -2.0298978495   -0.1176010290
H       -1.5018977928   -1.9019572506    0.4673466973
H       -2.5722097353    0.3868507406    0.6568816813
H       -1.1276177411    2.3825028424    0.0839948791
C        1.0904402425   -0.0588189466   -1.0609972685
H        1.5558000318    0.0473701704   -2.0322125523
13   
Frame  27 IRC: Energy =  -286.8469263029 ; +62.2972 kcal/mol
C        1.3947165860    0.0872310485    0.3559388573
C        0.4739775423   -1.0377193958   -0.1131082344
C       -0.9510249982   -0.9912232201    0.2836827235
C       -1.5217499329    0.2645339015    0.4251990923
C       -0.7180232481    1.3743186159    0.1977823254
N        0.6727810130    1.2519587887   -0.1319210670
H        2.3105314535    0.1136395413    0.9218574520
H        0.9421007374   -2.0230026146   -0.1503336532
H       -1.5011981665   -1.9080286340    0.4612328508
H       -2.5725526977    0.3857255900    0.6693962893
H       -1.1174671422    2.3810471141    0.1150801131
C        1.0437076941    0.0348980566   -1.0344054578
H        1.5442011592    0.0666212080   -2.0004012914
13   
Frame  28 IRC: Energy =  -286.8501300000 ; +60.2868 kcal/mol
C        1.3903493882    0.0814682049    0.3758648818
C        0.4737582429   -1.0392664178   -0.0968126950
C       -0.9551984259   -0.9984758147    0.2927672981
C       -1.5301987174    0.2624326007    0.4077373892
C       -0.7285230016    1.3646594294    0.1545045873
N        0.6562574432    1.2314302915   -0.2016231060
H        2.3337166659    0.1346278017    0.9008095744
H        0.9394358433   -2.0196644457   -0.1997041251
H       -1.5059102586   -1.9166459800    0.4655425598
H       -2.5738416823    0.3934902827    0.6790054032
H       -1.0857532281    2.3879526240    0.1850166851
C        1.0172947116    0.0483537604   -1.0168851368
H        1.5686130190    0.0696376630   -1.9462233158
