13   
From qcopt_rct.out: Frame 2 / 2, Energy=    -286.9243186469
C        1.4290409253    0.8425477252   -0.3246602406
C        0.2764252582   -1.4166417549   -0.2009983396
C       -0.9825037337   -1.0610192085    0.1814165965
C       -1.4662441652    0.2729491519    0.4324253416
C       -0.7712537347    1.4643933569    0.3440875518
N        0.5057467515    1.7716834584    0.0154935518
H        2.3963098658    1.2941117913   -0.5561172666
H        0.4716942959   -2.4770649763   -0.3478083011
H       -1.7079322776   -1.8610482251    0.3148013813
H       -2.5088850571    0.3578922540    0.7291584482
H       -1.3561086328    2.3547969810    0.5854078242
C        1.3911211359   -0.5349034973   -0.4356078185
H        2.3225893691   -1.0076970562   -0.7375987295
13   
From qcopt_prd.out: Frame 2 / 2, Energy=    -286.8404848753
C        1.2969194027   -0.2268038259    0.0036942257
C        0.3292090009   -1.3240394185    0.2277080706
C       -0.9950402145   -1.0798868525    0.3090785989
C       -1.5135242948    0.2810738631    0.3173389562
C       -0.6956382713    1.3359663353    0.1452551787
N        0.6854041423    1.1862498578   -0.1351236651
H        2.2194177859   -0.2548285212    0.5889823118
H        0.7255345344   -2.3282296796    0.3610373333
H       -1.6912650551   -1.8990463278    0.4685390324
H       -2.5586747706    0.4479039054    0.5623730734
H       -1.0179251019    2.3635020456    0.2902173331
C        1.2238779015    0.5378451929   -1.2474390585
H        1.9917049405    0.9602934252   -1.8916613906
