13   
From qcts1.out: Frame 23 / 23, Energy=    -286.8122600067
C        1.3708855104    0.1672357669    0.2914382142
C        0.4829170509   -1.0452792743   -0.0822900633
C       -0.9425659260   -0.9814847690    0.3259963964
C       -1.5238068320    0.2517198249    0.4074243920
C       -0.7233128106    1.3860238223    0.1317056845
N        0.6274273589    1.3458005860   -0.0503917930
H        2.2761531782    0.2036094511    0.8919151803
H        0.9687188771   -2.0217973697   -0.0178124059
H       -1.4739546140   -1.8982283550    0.5624409442
H       -2.5764542026    0.3790108977    0.6447482600
H       -1.1699089283    2.3620002214   -0.0433570054
C        1.1013199689   -0.1307593955   -1.0770318979
H        1.5475206856   -0.0400694605   -2.0536391661
