13   
From optimize.out: Frame 1 / 2, Energy=    -286.9243440152
C        1.3374088556    0.8630327542   -0.5692167788
C        0.2717232502   -1.4149392997   -0.2190670591
C       -0.9148941645   -1.0760410417    0.3592297020
C       -1.3808469394    0.2523161617    0.6636972589
C       -0.7390608738    1.4560185790    0.4365928386
N        0.4570638263    1.7816787336   -0.1031862444
H        2.2450018753    1.3291826855   -0.9589944881
H        0.4654123397   -2.4734959299   -0.3795090058
H       -1.5903632012   -1.8875257230    0.6227485735
H       -2.3618319473    0.3238665003    1.1270289569
H       -1.2999171019    2.3394086893    0.7502820903
C        1.3143766211   -0.5156861831   -0.6458662843
H        2.1959274605   -0.9778159267   -1.0837395593
13   
From optimize.out: Frame 4 / 5, Energy=    -286.8723918320
C        1.5315314933    0.2559102732   -0.6997034488
C       -0.2489688964   -1.2924905509    0.0275103171
C       -1.4833900242   -1.1759607653    0.6152700601
C       -1.7252016290    0.2180451142    0.8215104983
C       -0.6315330577    0.9026755662    0.3526022193
N        0.2772684087   -0.0202252077   -0.1352001332
H        2.0613239360   -0.6462602523   -1.0171283467
H        0.3108701829   -2.1589569490   -0.2948535445
H       -2.1438457391   -1.9937896763    0.8697808501
H       -2.6060684652    0.6634234345    1.2643720287
H       -0.4055536092    1.9578996987    0.3169601894
C        2.0719715321    1.4477271091   -0.8587092334
H        2.9915958678    1.8420022058   -1.2624114565
