13   
Frame   0 IRC: Energy =  -286.8854570000 ; +0.0000 kcal/mol
C        1.3829522869    0.7512314606   -0.6641941997
C        0.1074352754   -0.8430692904   -0.5105267812
C       -0.7963937107   -1.0287090628    0.6681743706
C       -1.3849853066    0.1971709708    0.9706061492
C       -0.9270060280    1.1866936444    0.1017052671
N       -0.0484191819    0.6327082552   -0.8618734887
H        1.9619808844    1.6582154776   -0.7976379123
H       -0.1175570398   -1.5030198012   -1.3605321526
H       -1.0076520197   -1.9809611214    1.1370095821
H       -2.1097548465    0.3663705164    1.7601105581
H       -1.1459931618    2.2460310750    0.0992274279
C        1.6047052893   -0.5347131272   -0.3542310014
H        2.4806875595   -1.1479489973   -0.1878378191
13   
Frame   1 IRC: Energy =  -286.8847359347 ; +0.4525 kcal/mol
C        1.3803484872    0.7573120486   -0.6923962508
C        0.1170500646   -0.8450578461   -0.4827075645
C       -0.8145211796   -1.0387069790    0.6721052689
C       -1.3958422769    0.1916487966    0.9770395226
C       -0.9145755886    1.1833637019    0.1243315741
N       -0.0523450041    0.6241361653   -0.8506121354
H        1.9517587999    1.6561502079   -0.8978466901
H       -0.0795967714   -1.5131463649   -1.3322771665
H       -1.0834271308   -2.0000326248    1.0914936017
H       -2.1381953984    0.3594990714    1.7502443592
H       -1.0904511697    2.2504000933    0.1526041927
C        1.6158335819   -0.5138026166   -0.3378567580
H        2.5039635859   -1.1117636537   -0.1741219539
13   
Frame   2 IRC: Energy =  -286.8832182742 ; +1.4048 kcal/mol
C        1.3759856654    0.7629122277   -0.7181937243
C        0.1275104997   -0.8488392380   -0.4529020659
C       -0.8326044228   -1.0478581588    0.6783243506
C       -1.4069894030    0.1871501139    0.9831800152
C       -0.9014228023    1.1787750535    0.1451819101
N       -0.0572721401    0.6131655577   -0.8375850708
H        1.9312327754    1.6551834849   -0.9847459719
H       -0.0410165591   -1.5308115293   -1.2967467760
H       -1.1643613018   -2.0128897563    1.0415197985
H       -2.1677578112    0.3573030376    1.7381990487
H       -1.0274795526    2.2514260230    0.2031667348
C        1.6300403373   -0.4935719184   -0.3231815158
H        2.5341347150   -1.0719448977   -0.1762167332
13   
Frame   3 IRC: Energy =  -286.8806909031 ; +2.9908 kcal/mol
C        1.3694719576    0.7634704237   -0.7361983916
C        0.1362540999   -0.8598132782   -0.4234632371
C       -0.8569997895   -1.0587737185    0.6837353401
C       -1.4197187567    0.1837881316    0.9881426179
C       -0.8877118754    1.1711819050    0.1632754954
N       -0.0616269033    0.5956320332   -0.8224913317
H        1.9041514698    1.6527765191   -1.0494424443
H       -0.0070313482   -1.5492016421   -1.2646567220
H       -1.2515943422   -2.0178105942    0.9987052892
H       -2.1938478073    0.3652893331    1.7281738483
H       -0.9619874277    2.2469458866    0.2448460990
C        1.6503240504   -0.4754565346   -0.3114283671
H        2.5803166725   -1.0180284648   -0.1991981961
13   
Frame   4 IRC: Energy =  -286.8764020895 ; +5.6820 kcal/mol
C        1.3637598425    0.7527109848   -0.7435819218
C        0.1366076690   -0.8782243188   -0.4034423643
C       -0.9055961607   -1.0712576797    0.6709701879
C       -1.4424160033    0.1839644082    0.9885549391
C       -0.8707779442    1.1627320189    0.1842975106
N       -0.0558308589    0.5715618055   -0.7984255531
H        1.8728923858    1.6431035458   -1.0897409512
H        0.0102860114   -1.5587094618   -1.2554965120
H       -1.3300233958   -2.0202329020    0.9833588373
H       -2.2092440578    0.3885453816    1.7313579962
H       -0.9118992808    2.2400431391    0.2689919986
C        1.6803855824   -0.4726236290   -0.3036264430
H        2.6618562105   -0.9416132926   -0.2332177242
13   
Frame   5 IRC: Energy =  -286.8686313576 ; +10.5583 kcal/mol
C        1.3667490906    0.7316894830   -0.7490038266
C        0.0948111562   -0.8912320956   -0.4027895334
C       -0.9732742729   -1.0745513633    0.6394502406
C       -1.4682006724    0.1927129178    0.9921452067
C       -0.8594704503    1.1609128917    0.2037644281
N       -0.0475921824    0.5511498071   -0.7677757745
H        1.8415484696    1.6352992077   -1.1110907278
H        0.0176848639   -1.5735808209   -1.2608705596
H       -1.3721775508   -2.0231553887    0.9822978476
H       -2.2182632534    0.4105958164    1.7498360116
H       -0.8864345263    2.2393559197    0.2785307014
C        1.7394157494   -0.4747377943   -0.3004336573
H        2.7652035788   -0.8844585807   -0.2540603568
13   
Frame   6 IRC: Energy =  -286.8578563159 ; +17.3197 kcal/mol
C        1.3726214854    0.7139277727   -0.7549995889
C       -0.0187115084   -0.8959895507   -0.4195141591
C       -1.0193846202   -1.0739690246    0.6157384503
C       -1.4814767192    0.2051944494    0.9984056358
C       -0.8551659160    1.1593806395    0.2138166629
N       -0.0460070512    0.5308011319   -0.7373143004
H        1.8230219044    1.6316205861   -1.1190668380
H        0.0340509653   -1.5870366262   -1.2594610523
H       -1.3885350288   -2.0240930103    0.9798167128
H       -2.2214059161    0.4221105349    1.7616020642
H       -0.8735484376    2.2379891298    0.2816614580
C        1.8267061548   -0.4574253579   -0.3008924635
H        2.8478346876   -0.8625106746   -0.2597925818
13   
Frame   7 IRC: Energy =  -286.8554788559 ; +18.8116 kcal/mol (Transition State)
C        1.3783295637    0.6974921960   -0.7577118638
C       -0.1466558586   -0.8990709691   -0.4452401155
C       -1.0514792242   -1.0747110645    0.5967139863
C       -1.4895102642    0.2192106802    1.0046770245
C       -0.8513821536    1.1568562690    0.2228072242
N       -0.0485688884    0.5062669834   -0.7123510966
H        1.8089251056    1.6283801119   -1.1220520616
H        0.0581240137   -1.5954601434   -1.2478230415
H       -1.4007815005   -2.0246060722    0.9764680212
H       -2.2234320974    0.4306722347    1.7704149644
H       -0.8634047040    2.2362282375    0.2835094690
C        1.9190071083   -0.4286942850   -0.3102100617
H        2.9108288996   -0.8525641787   -0.2592024491
13   
Frame   8 IRC: Energy =  -286.8618744007 ; +14.7983 kcal/mol
C        1.3780320781    0.6798331087   -0.7591304270
C       -0.2542324429   -0.9021948319   -0.4808802554
C       -1.0975193098   -1.0755477372    0.5794964854
C       -1.4983053999    0.2314434390    1.0139650472
C       -0.8433987289    1.1550430841    0.2383877329
N       -0.0526124055    0.4812811679   -0.6984373271
H        1.7878418075    1.6230341595   -1.1227461270
H        0.0868318877   -1.6044158392   -1.2273628580
H       -1.4224504204   -2.0273753010    0.9741192679
H       -2.2264869993    0.4428322535    1.7828861476
H       -0.8501435664    2.2351871240    0.2861529263
C        2.0110346787   -0.3955706668   -0.3289157232
H        2.9814088212   -0.8435499608   -0.2575348896
13   
Frame   9 IRC: Energy =  -286.8677859299 ; +11.0888 kcal/mol
C        1.3766596684    0.6606733118   -0.7635252419
C       -0.3205952341   -0.9128036291   -0.5030195465
C       -1.1577593508   -1.0781123392    0.5577863445
C       -1.5113061115    0.2387567836    1.0195890185
C       -0.8271011578    1.1498492452    0.2564980981
N       -0.0538101562    0.4574917581   -0.6855583581
H        1.7515940114    1.6207511225   -1.1228916487
H        0.1117557528   -1.6189368849   -1.1952879021
H       -1.4700444779   -2.0269616837    0.9659421105
H       -2.2279609147    0.4617334946    1.7987417236
H       -0.8249981600    2.2299915832    0.2940590026
C        2.0916749295   -0.3685064847   -0.3579438940
H        3.0618912009   -0.8139262774   -0.2643897065
13   
Frame  10 IRC: Energy =  -286.8722526395 ; +8.2859 kcal/mol
C        1.3781908688    0.6487918746   -0.7703023852
C       -0.3464622410   -0.9301787673   -0.4974559388
C       -1.2108997105   -1.0796614859    0.5450112165
C       -1.5289252026    0.2415836926    1.0185442049
C       -0.8098423909    1.1384586600    0.2708784227
N       -0.0439101347    0.4285988192   -0.6641164586
H        1.7131202541    1.6243008412   -1.1254763893
H        0.1224270832   -1.6439657850   -1.1570909088
H       -1.5463600656   -2.0238292395    0.9471566304
H       -2.2313027015    0.4822096224    1.8060992345
H       -0.7840122013    2.2184926985    0.3092263463
C        2.1498638259   -0.3504323897   -0.3918545522
H        3.1381126161   -0.7543685412   -0.2906194225
13   
Frame  11 IRC: Energy =  -286.8761192603 ; +5.8595 kcal/mol
C        1.3819750700    0.6405720473   -0.7755401241
C       -0.3553912957   -0.9505019408   -0.4773213319
C       -1.2528978564   -1.0820105559    0.5414971942
C       -1.5473296943    0.2431263562    1.0163478404
C       -0.7936823348    1.1259350155    0.2829894977
N       -0.0290443712    0.4002434971   -0.6363224203
H        1.6827676791    1.6280321252   -1.1307323531
H        0.1245791405   -1.6746671681   -1.1182515223
H       -1.6286067118   -2.0180221124    0.9255886034
H       -2.2450371127    0.5002811212    1.8020071242
H       -0.7375543056    2.2041851851    0.3272684596
C        2.1942638703   -0.3340964097   -0.4236761757
H        3.2059579226   -0.6830771607   -0.3338547921
13   
Frame  12 IRC: Energy =  -286.8795418471 ; +3.7118 kcal/mol
C        1.3864323992    0.6335688541   -0.7786904226
C       -0.3586072910   -0.9699591449   -0.4525412259
C       -1.2899704412   -1.0823668324    0.5412039705
C       -1.5668414469    0.2458177701    1.0131138711
C       -0.7798453734    1.1133238990    0.2975297446
N       -0.0109271248    0.3715386153   -0.6044079638
H        1.6577004042    1.6279284230   -1.1373804782
H        0.1246646941   -1.7048832756   -1.0782649660
H       -1.7055343150   -2.0107507748    0.9064389682
H       -2.2688541727    0.5171675645    1.7890000343
H       -0.6934037668    2.1899956495    0.3469264319
C        2.2367828999   -0.3199439093   -0.4536174817
H        3.2684035344   -0.6114368385   -0.3893104824
13   
Frame  13 IRC: Energy =  -286.8826048161 ; +1.7898 kcal/mol
C        1.3928448374    0.6246916493   -0.7795158144
C       -0.3595686197   -0.9890077782   -0.4240878503
C       -1.3246342837   -1.0822023309    0.5421980800
C       -1.5876664282    0.2490291159    1.0087407356
C       -0.7664793681    1.1014393484    0.3127604342
N        0.0089399010    0.3441637376   -0.5680787621
H        1.6346577205    1.6251323944   -1.1441185040
H        0.1257830929   -1.7341524801   -1.0359297280
H       -1.7769329349   -2.0014713554    0.8886717363
H       -2.2988523708    0.5343305114    1.7700788170
H       -0.6530762065    2.1755876294    0.3674779884
C        2.2784192829   -0.3055447890   -0.4847316852
H        3.3265653773   -0.5419956526   -0.4534654476
13   
Frame  14 IRC: Energy =  -286.8853535257 ; +0.0649 kcal/mol
C        1.3993213362    0.6159459667   -0.7784327769
C       -0.3577703538   -1.0074310186   -0.3919999363
C       -1.3573584803   -1.0807291852    0.5444243417
C       -1.6099824380    0.2529513492    1.0032640009
C       -0.7538457823    1.0899745107    0.3293837719
N        0.0313306140    0.3167055517   -0.5278623575
H        1.6124545699    1.6203500532   -1.1496614190
H        0.1290455656   -1.7632300313   -0.9897296626
H       -1.8440870474   -1.9909994411    0.8717068612
H       -2.3336894082    0.5524757825    1.7449687003
H       -0.6163062222    2.1616904083    0.3887641752
C        2.3210884667   -0.2924435166   -0.5179707447
H        3.3797991797   -0.4752604294   -0.5268549542
13   
Frame  15 IRC: Energy =  -286.8877908969 ; -1.4645 kcal/mol
C        1.4081776012    0.6056570589   -0.7751115771
C       -0.3553607621   -1.0272707897   -0.3558282128
C       -1.3860669056   -1.0815787208    0.5465147639
C       -1.6304745913    0.2579326178    0.9944876549
C       -0.7410778712    1.0804408415    0.3446951906
N        0.0531771595    0.2935743337   -0.4833190113
H        1.5909956299    1.6147411275   -1.1522414549
H        0.1352458594   -1.7910430738   -0.9398747461
H       -1.9036500495   -1.9782632175    0.8553171363
H       -2.3720294796    0.5715619261    1.7164799753
H       -0.5846629719    2.1475896617    0.4088885012
C        2.3597925450   -0.2791769157   -0.5533617766
H        3.4259338362   -0.4141648498   -0.6066464434
13   
Frame  16 IRC: Energy =  -286.8898804509 ; -2.7758 kcal/mol
C        1.4169754620    0.5960867700   -0.7700348751
C       -0.3494261873   -1.0440161486   -0.3179701562
C       -1.4129679016   -1.0785569384    0.5510920951
C       -1.6523746254    0.2629581444    0.9857906097
C       -0.7306035868    1.0706102243    0.3610070338
N        0.0777198876    0.2693111427   -0.4380147811
H        1.5698779959    1.6083012956   -1.1497949526
H        0.1452864388   -1.8189123927   -0.8863164711
H       -1.9574882694   -1.9664939758    0.8404928293
H       -2.4099115655    0.5907906811    1.6817439417
H       -0.5569072914    2.1355846959    0.4275736135
C        2.3968150203   -0.2675606402   -0.5919101090
H        3.4630046229   -0.3581028583   -0.6936587781
13   
Frame  17 IRC: Energy =  -286.8916787469 ; -3.9042 kcal/mol
C        1.4233885502    0.5856935564   -0.7618838219
C       -0.3419409577   -1.0621235819   -0.2772950414
C       -1.4342529442   -1.0781829765    0.5535721293
C       -1.6716584058    0.2710920144    0.9735718018
C       -0.7196108115    1.0628804726    0.3755275132
N        0.1017512091    0.2462231293   -0.3889972428
H        1.5501818948    1.6036605136   -1.1414311439
H        0.1578330129   -1.8449862676   -0.8262977118
H       -2.0054696555   -1.9541318717    0.8270671605
H       -2.4499308520    0.6114232843    1.6437836977
H       -0.5333113540    2.1235956185    0.4439948248
C        2.4285673811   -0.2577351656   -0.6339123203
H        3.4944529327   -0.3074087256   -0.7876998452
13   
Frame  18 IRC: Energy =  -286.8929648872 ; -4.7113 kcal/mol
C        1.4331909057    0.5791617050   -0.7504011228
C       -0.3283631251   -1.0773505217   -0.2300417815
C       -1.4497411258   -1.0770307524    0.5609621327
C       -1.6906902135    0.2780861581    0.9606114084
C       -0.7106835988    1.0563980822    0.3922896733
N        0.1236304549    0.2291409478   -0.3452239010
H        1.5341063070    1.6019258783   -1.1248069964
H        0.1809557443   -1.8686233481   -0.7564040709
H       -2.0413881229   -1.9434340224    0.8171152258
H       -2.4919930136    0.6314556424    1.5955639113
H       -0.5180824541    2.1160632381    0.4563000396
C        2.4514401335   -0.2526929171   -0.6826476798
H        3.5076181084   -0.2731000904   -0.8933168387
13   
Frame  19 IRC: Energy =  -286.8939751481 ; -5.3452 kcal/mol
C        1.4423774021    0.5763320965   -0.7350500290
C       -0.3095712689   -1.0892384586   -0.1785489113
C       -1.4604920852   -1.0746884655    0.5712043150
C       -1.7095061284    0.2845115850    0.9475310739
C       -0.7018134476    1.0505616428    0.4113787935
N        0.1425269022    0.2158732816   -0.3065713075
H        1.5218613481    1.6016585571   -1.1061383749
H        0.2112558415   -1.8896697726   -0.6802956596
H       -2.0703142108   -1.9343431806    0.8093646839
H       -2.5363023156    0.6502370602    1.5405094599
H       -0.5089168196    2.1113793531    0.4667931709
C        2.4678653345   -0.2502586900   -0.7353639957
H        3.5110294476   -0.2523550091   -1.0048132191
13   
Frame  20 IRC: Energy =  -286.8949229007 ; -5.9399 kcal/mol
C        1.4519102685    0.5687703890   -0.7180190601
C       -0.2969308586   -1.1022665859   -0.1342652737
C       -1.4693135995   -1.0726238401    0.5837712078
C       -1.7233003014    0.2908374952    0.9362878086
C       -0.6967477633    1.0455257876    0.4192033596
N        0.1642510849    0.1990682654   -0.2639272932
H        1.5157246375    1.6042950769   -1.0601976882
H        0.2317355749   -1.9127894109   -0.6121141657
H       -2.0939393317   -1.9256150690    0.8100672594
H       -2.5694798604    0.6690752892    1.4922203395
H       -0.5043844714    2.1077073757    0.4604086829
C        2.4815510991   -0.2489154329   -0.7948755195
H        3.5089235215   -0.2230693403   -1.1185596575
13   
Frame  21 IRC: Energy =  -286.8957867732 ; -6.4820 kcal/mol
C        1.4600399859    0.5585120690   -0.7019684380
C       -0.2872845380   -1.1155200481   -0.0941961313
C       -1.4763100526   -1.0708096591    0.5970957136
C       -1.7339986530    0.2970674205    0.9247730506
C       -0.6938294621    1.0412254921    0.4196936222
N        0.1868912018    0.1808550903   -0.2203188509
H        1.5148196929    1.6091595020   -0.9957776461
H        0.2481251239   -1.9365191127   -0.5468873925
H       -2.1121378461   -1.9177782132    0.8168987817
H       -2.5950745830    0.6873913895    1.4479808270
H       -0.5018864364    2.1045913949    0.4445566173
C        2.4902105977   -0.2485660198   -0.8597590954
H        3.5004349689   -0.1896093053   -1.2320910580
13   
Frame  22 IRC: Energy =  -286.8964198108 ; -6.8793 kcal/mol
C        1.4600940987    0.5490751399   -0.6959131069
C       -0.2740096305   -1.1264501503   -0.0534078465
C       -1.4800078156   -1.0694091081    0.6071764713
C       -1.7443960220    0.3031179301    0.9063370627
C       -0.6901475553    1.0381851839    0.4175561539
N        0.2055575767    0.1662988919   -0.1839642642
H        1.5216232632    1.6163901564   -0.9213767913
H        0.2737613724   -1.9570275232   -0.4724597658
H       -2.1192080957   -1.9133066447    0.8288330009
H       -2.6163949550    0.7029206675    1.4035402920
H       -0.4955493517    2.1011963799    0.4323864791
C        2.4819919025   -0.2498909662   -0.9309740233
H        3.4766852124   -0.1610999572   -1.3377336617
13   
Frame  23 IRC: Energy =  -286.8968087459 ; -7.1233 kcal/mol
C        1.4631476830    0.5438505505   -0.6831524983
C       -0.2583614290   -1.1320287474   -0.0145182416
C       -1.4788071240   -1.0687084629    0.6181720090
C       -1.7546074279    0.3075974488    0.8878703604
C       -0.6933210609    1.0383313743    0.4078408743
N        0.2232048788    0.1587946792   -0.1485934322
H        1.5418455450    1.6212471675   -0.8460079584
H        0.3048856630   -1.9688055324   -0.3982799382
H       -2.1145767392   -1.9126894023    0.8481050469
H       -2.6355871018    0.7123088893    1.3652722613
H       -0.5011777836    2.1015325509    0.4105429968
C        2.4627474583   -0.2537788423   -1.0027321478
H        3.4406074383   -0.1476516731   -1.4445193322
13   
Frame  24 IRC: Energy =  -286.8970441005 ; -7.2710 kcal/mol
C        1.4642265307    0.5412484996   -0.6771902835
C       -0.2409747399   -1.1350838790    0.0243996959
C       -1.4740477346   -1.0687157549    0.6313465832
C       -1.7648493598    0.3109656654    0.8690417927
C       -0.6981392263    1.0396672868    0.3986334325
N        0.2377935365    0.1556456666   -0.1182301981
H        1.5721651571    1.6244893215   -0.7675108199
H        0.3385394354   -1.9757686866   -0.3250544504
H       -2.1037710598   -1.9140067471    0.8719767533
H       -2.6551858959    0.7180537796    1.3270463244
H       -0.5115902861    2.1035841766    0.3879484111
C        2.4349050042   -0.2574229033   -1.0783342992
H        3.4009286385   -0.1426564251   -1.5440729420
13   
Frame  25 IRC: Energy =  -286.8971465980 ; -7.3353 kcal/mol
C        1.4676687242    0.5452840102   -0.6727566149
C       -0.2250796822   -1.1343038639    0.0537042683
C       -1.4650669209   -1.0693263399    0.6457468959
C       -1.7706319697    0.3120927109    0.8583157717
C       -0.7057250004    1.0424611563    0.3870540444
N        0.2428849616    0.1588279203   -0.1066472551
H        1.6090285550    1.6288999340   -0.6873860143
H        0.3695567280   -1.9747181366   -0.2703478386
H       -2.0866687747   -1.9163412881    0.9008662691
H       -2.6675105475    0.7175185915    1.3051629390
H       -0.5316783418    2.1081201048    0.3556225955
C        2.3971812730   -0.2589237913   -1.1532965085
H        3.3660409954   -0.1595910082   -1.6160385524
