13   
From optimize.out: Frame 4 / 5, Energy=    -286.8723918320
C        1.5315314933    0.2559102732   -0.6997034488
C       -0.2489688964   -1.2924905509    0.0275103171
C       -1.4833900242   -1.1759607653    0.6152700601
C       -1.7252016290    0.2180451142    0.8215104983
C       -0.6315330577    0.9026755662    0.3526022193
N        0.2772684087   -0.0202252077   -0.1352001332
H        2.0613239360   -0.6462602523   -1.0171283467
H        0.3108701829   -2.1589569490   -0.2948535445
H       -2.1438457391   -1.9937896763    0.8697808501
H       -2.6060684652    0.6634234345    1.2643720287
H       -0.4055536092    1.9578996987    0.3169601894
C        2.0719715321    1.4477271091   -0.8587092334
H        2.9915958678    1.8420022058   -1.2624114565
