13   
From optimize.out: Frame 1 / 2, Energy=    -286.8549487882
C        1.4686732685    0.4434648827   -0.3530738584
C        0.8844898150   -0.7852997800    0.2158355540
C       -0.7449175472   -0.8064664611    0.1739773918
C       -1.3117588051    0.4547650255   -0.3303380734
C       -0.5481144770    1.5423396026   -0.5757289614
N        0.8460300516    1.5355555592   -0.6348741906
H        2.5303145794    0.3995219587   -0.6079325517
H        1.4411642486   -1.6994013932    0.0000858207
H       -1.2584586499   -1.7272652578   -0.1086158969
H       -2.3826894973    0.4875523101   -0.5153848406
H       -1.0043020908    2.4797194493   -0.8832408489
C        0.0350901728   -0.7972998302    1.4092860838
H        0.0444789317   -1.5271860652    2.2100043717
13   
From optimize.out: Frame 56 / 57, Energy=    -286.8549487881
C        1.4636712382    0.4487694821   -0.3486986341
C        0.8862124239   -0.7763117371    0.2279369905
C       -0.7488603512   -0.7887687076    0.1992864275
C       -1.3131635367    0.4624673226   -0.3269071928
C       -0.5495320758    1.5453352994   -0.5942462819
N        0.8442692677    1.5400429483   -0.6413821745
H        2.5277588073    0.4006454896   -0.5930148043
H        1.4443709323   -1.6882308609    0.0093392270
H       -1.2733649473   -1.7084135318   -0.0656834239
H       -2.3814419947    0.4915269005   -0.5244873790
H       -1.0046471956    2.4758928739   -0.9234848010
C        0.0433246398   -0.7961845868    1.4305004096
H        0.0614027922   -1.6067708922    2.1508416369
13   
From optimize.out: Frame 53 / 57, Energy=    -286.8549356414
C        1.4645989104    0.4535057647   -0.3586741479
C        0.9026375208   -0.7634533543    0.2603200474
C       -0.7339478433   -0.7876683766    0.1848759659
C       -1.3166435416    0.4659386149   -0.3232110334
C       -0.5551256963    1.5412011610   -0.6216478179
N        0.8409734869    1.5234203353   -0.7063201449
H        2.5292236378    0.3942193777   -0.6006773312
H        1.4732473864   -1.6713388698    0.0615384920
H       -1.2424563193   -1.7103906204   -0.1033948760
H       -2.3963084667    0.5094903638   -0.4401619861
H       -0.9993852453    2.4883717250   -0.9156126879
C        0.0176181334   -0.7995985828    1.4400470504
H        0.0155680368   -1.6436975386    2.1229184696
13   
From optimize.out: Frame 51 / 57, Energy=    -286.8548783919
C        1.4677303095    0.4454612266   -0.3865369128
C        0.9095743603   -0.7674859284    0.2571201779
C       -0.7007170243   -0.7930676475    0.1659975244
C       -1.3056464349    0.4576961162   -0.3216649775
C       -0.5603341557    1.5345871216   -0.6278735312
N        0.8291681605    1.5029307338   -0.7388998174
H        2.5352705451    0.4153666503   -0.6164584534
H        1.5078337190   -1.6647312362    0.0942162978
H       -1.2243016087   -1.7163296183   -0.0859260188
H       -2.3901698063    0.5059032038   -0.3785070649
H       -0.9932843689    2.4979908033   -0.8813586029
C        0.0343600051   -0.7748354353    1.4425837213
H       -0.1094837007   -1.6434859898    2.0773076575
13   
From optimize.out: Frame 48 / 57, Energy=    -286.8547766722
C        1.4728586871    0.4324110896   -0.4147093826
C        0.8837976149   -0.7450836505    0.2481935451
C       -0.6745294026   -0.8141735285    0.1335669400
C       -1.2928964651    0.4379301616   -0.3239907620
C       -0.5556924238    1.5227315894   -0.6175272865
N        0.8224398134    1.4801707070   -0.7510417305
H        2.5413417779    0.4171887521   -0.6301008085
H        1.5235851916   -1.6254323776    0.1229394138
H       -1.2205130563   -1.7361269454   -0.0486392746
H       -2.3775058345    0.4993664433   -0.3473549850
H       -0.9820974684    2.4965697320   -0.8354093791
C        0.0718494012   -0.7370719543    1.4603890354
H       -0.2126378353   -1.6284800187    2.0036846745
13   
From optimize.out: Frame 43 / 57, Energy=    -286.8545055827
C        1.4732418104    0.4160936640   -0.4384509758
C        0.8384588847   -0.7264316679    0.2421195851
C       -0.6521613035   -0.8299621054    0.0749705351
C       -1.2928409892    0.4170083044   -0.3412444868
C       -0.5513979181    1.5200645850   -0.6026770818
N        0.8388596439    1.4783150341   -0.7562598313
H        2.5447269243    0.4029633411   -0.6331701586
H        1.4941047329   -1.6040054022    0.1858423074
H       -1.2138879174   -1.7511896697   -0.0166183691
H       -2.3756671268    0.4912508955   -0.3481937531
H       -0.9898412198    2.4948727314   -0.7817693076
C        0.1250389007   -0.6907801726    1.4996034878
H       -0.2386344221   -1.6181995377    1.9158480487
13   
From optimize.out: Frame 40 / 57, Energy=    -286.8543074834
C        1.4707090057    0.4083229462   -0.4651693277
C        0.8166901889   -0.7470563613    0.1975769434
C       -0.6310743161   -0.8413609635    0.0014631047
C       -1.2877956466    0.3971872807   -0.3510870651
C       -0.5412246222    1.5236690393   -0.5891382106
N        0.8545298358    1.5034220816   -0.7594901448
H        2.5486062087    0.4053024758   -0.6276319955
H        1.4445930840   -1.6389480109    0.2441585600
H       -1.1919051198   -1.7668082584   -0.0144802382
H       -2.3711001087    0.4672252406   -0.3365995169
H       -1.0045667188    2.4958307869   -0.7215229157
C        0.1448244563   -0.6238246679    1.5413136504
H       -0.2522862473   -1.5829615893    1.8806071561
13   
From optimize.out: Frame 37 / 57, Energy=    -286.8541201534
C        1.4689789417    0.4018195364   -0.4781851841
C        0.8134839760   -0.7807495351    0.1194641853
C       -0.6160265522   -0.8548865860   -0.0589836016
C       -1.2766528599    0.3798217317   -0.3508397704
C       -0.5310193929    1.5184193234   -0.5734309976
N        0.8559899757    1.5185758265   -0.7416537491
H        2.5519378748    0.4098771367   -0.6066865666
H        1.4181681280   -1.6793567472    0.2244676446
H       -1.1732840539   -1.7829187920   -0.0303301419
H       -2.3604799202    0.4446835669   -0.3223825359
H       -1.0121907126    2.4868654863   -0.6757725163
C        0.1313537947   -0.5426791332    1.5823267833
H       -0.2702591991   -1.5194718145    1.9120064503
13   
From optimize.out: Frame 34 / 57, Energy=    -286.8534554834
C        1.4704392390    0.3958891714   -0.4803148629
C        0.8155134913   -0.8093861983    0.0422846430
C       -0.6055039224   -0.8706056548   -0.0991952118
C       -1.2668715995    0.3657469969   -0.3479309730
C       -0.5238350139    1.5109714567   -0.5569954834
N        0.8542437558    1.5234259434   -0.7134835889
H        2.5558875201    0.4105574719   -0.5853069326
H        1.4096818381   -1.7108859771    0.1635532645
H       -1.1583648109   -1.8011454859   -0.0492779353
H       -2.3510584286    0.4256964790   -0.3121550101
H       -1.0149252292    2.4767595646   -0.6428208882
C        0.1074167224   -0.4695428856    1.6115263661
H       -0.2926235622   -1.4474808822    1.9701166126
13   
From optimize.out: Frame 32 / 57, Energy=    -286.8516107029
C        1.4722704084    0.3880022898   -0.4774605986
C        0.8177686119   -0.8336900714   -0.0251821550
C       -0.5980192013   -0.8876449894   -0.1340123139
C       -1.2591126176    0.3518046664   -0.3432537537
C       -0.5182507613    1.5022292920   -0.5379159038
N        0.8516418070    1.5218749637   -0.6815688316
H        2.5589357343    0.4072713672   -0.5662180667
H        1.4076446169   -1.7375645438    0.0936858692
H       -1.1473949486   -1.8204623963   -0.0767351678
H       -2.3435494869    0.4083335437   -0.3041978536
H       -1.0154841625    2.4662565386   -0.6115529867
C        0.0865223727   -0.4000394367    1.6293860742
H       -0.3129723731   -1.3663712236    2.0350256880
13   
From optimize.out: Frame 29 / 57, Energy=    -286.8445139966
C        1.4735585341    0.3779057589   -0.4713433667
C        0.8191611659   -0.8559149170   -0.0851505720
C       -0.5925512912   -0.9052749154   -0.1676053343
C       -1.2530648323    0.3367384283   -0.3369558955
C       -0.5134709695    1.4925037435   -0.5168268194
N        0.8491961129    1.5168147444   -0.6479238493
H        2.5609203729    0.4010516790   -0.5468803683
H        1.4073460875   -1.7619863065    0.0233479177
H       -1.1398804760   -1.8398026199   -0.1108437626
H       -2.3376501473    0.3913858591   -0.2970023972
H       -1.0150985325    2.4552125612   -0.5799421006
C        0.0703921855   -0.3312462866    1.6382798111
H       -0.3288582100   -1.2773877290    2.0988467371
13   
From optimize.out: Frame 26 / 57, Energy=    -286.8310460273
C        1.4741265015    0.3656678555   -0.4618010562
C        0.8194384422   -0.8769060791   -0.1382325865
C       -0.5889349744   -0.9232742020   -0.1997472201
C       -1.2487377574    0.3203828158   -0.3291901054
C       -0.5092415513    1.4819199610   -0.4939849995
N        0.8472367747    1.5092916524   -0.6131490240
H        2.5618734701    0.3922170378   -0.5259980000
H        1.4073101857   -1.7850085414   -0.0456726529
H       -1.1354387550   -1.8589994112   -0.1495914911
H       -2.3334145148    0.3745817635   -0.2905711891
H       -1.0140881239    2.4436333053   -0.5478657471
C        0.0590582650   -0.2626034668    1.6377533110
H       -0.3391879623   -1.1809026907    2.1580507610
13   
From optimize.out: Frame 24 / 57, Energy=    -286.8200209778
C        1.4738296086    0.3515368419   -0.4485171241
C        0.8185044582   -0.8974328073   -0.1849395808
C       -0.5871418636   -0.9415973788   -0.2295900106
C       -1.2461241717    0.3028817264   -0.3204711337
C       -0.5053376001    1.4704259419   -0.4693436334
N        0.8457743083    1.5000833147   -0.5776943592
H        2.5618033856    0.3810291720   -0.5028961965
H        1.4068025285   -1.8072633809   -0.1122730004
H       -1.1337080074   -1.8780993195   -0.1904672500
H       -2.3308847481    0.3580306528   -0.2856610582
H       -1.0125874062    2.4314447850   -0.5151017901
C        0.0524047293   -0.1932509233    1.6275432554
H       -0.3433352214   -1.0777886250    2.2094118815
13   
From optimize.out: Frame 21 / 57, Energy=    -286.8063839670
C        1.4722743731    0.3352971463   -0.4303646502
C        0.8159967248   -0.9180166990   -0.2242845242
C       -0.5876062287   -0.9602405223   -0.2557026837
C       -1.2456951133    0.2842906988   -0.3114999926
C       -0.5017281377    1.4577090996   -0.4423888956
N        0.8448270205    1.4894221234   -0.5415850398
H        2.5603883305    0.3672874628   -0.4767958949
H        1.4052519006   -1.8290409062   -0.1743731477
H       -1.1350044944   -1.8970208232   -0.2306607656
H       -2.3305275985    0.3421381140   -0.2837930544
H       -1.0105276293    2.4184473191   -0.4813646084
C        0.0518194787   -0.1218218655    1.6053656206
H       -0.3394686263   -0.9684511478    2.2474476367
13   
From optimize.out: Frame 18 / 57, Energy=    -286.7938030433
C        1.4692232710    0.3168086713   -0.4067040198
C        0.8117313254   -0.9390036779   -0.2551738119
C       -0.5906726976   -0.9790667701   -0.2765765122
C       -1.2478142697    0.2648885490   -0.3033860449
C       -0.4983950982    1.4438234443   -0.4129320264
N        0.8444394128    1.4781077875   -0.5050609249
H        2.5574159721    0.3512542395   -0.4474972797
H        1.4018252768   -1.8507860070   -0.2282268933
H       -1.1393352401   -1.9156986950   -0.2656213442
H       -2.3326730816    0.3269201157   -0.2860495544
H       -1.0077608706    2.4048581377   -0.4465738138
C        0.0586942560   -0.0467771456    1.5684874893
H       -0.3266782563   -0.8553286495    2.2653147363
13   
From optimize.out: Frame 13 / 57, Energy=    -286.7707047735
C        1.4654098827    0.2964577022   -0.3788025368
C        0.8063810738   -0.9599585669   -0.2769557947
C       -0.5960789655   -0.9973362640   -0.2915343397
C       -1.2524552831    0.2453794289   -0.2971663260
C       -0.4955072679    1.4299284445   -0.3819900243
N        0.8447737669    1.4682322936   -0.4690925534
H        2.5534983080    0.3329718101   -0.4154723965
H        1.3955768889   -1.8730096498   -0.2690183352
H       -1.1459214985   -1.9336117210   -0.2903296831
H       -2.3373178404    0.3104232297   -0.2909366733
H       -1.0044323675    2.3917915806   -0.4111848890
C        0.0728581471    0.0318973144    1.5149449406
H       -0.3067848446   -0.7431656023    2.2575386113
13   
From optimize.out: Frame 10 / 57, Energy=    -286.7558150909
C        1.4630910679    0.2753644652   -0.3500338001
C        0.8015171941   -0.9798276482   -0.2901422469
C       -0.6023368181   -1.0132775626   -0.3008403542
C       -1.2589890959    0.2273287399   -0.2935913126
C       -0.4944410363    1.4181834026   -0.3521799420
N        0.8455957149    1.4617067542   -0.4344669507
H        2.5504602564    0.3107967673   -0.3811315516
H        1.3858562970   -1.8958094303   -0.2925166063
H       -1.1527424084   -1.9487060053   -0.3006317850
H       -2.3437209271    0.2895558148   -0.2946627706
H       -1.0023897641    2.3804415129   -0.3761124933
C        0.0919619748    0.1117657618    1.4451286859
H       -0.2838624552   -0.6375225723    2.2211811273
13   
From optimize.out: Frame 8 / 57, Energy=    -286.7429786092
C        1.4645325172    0.2561784462   -0.3241885859
C        0.7970906462   -0.9984253542   -0.2975948530
C       -0.6051130843   -1.0258090587   -0.3046799041
C       -1.2653998926    0.2134037163   -0.2919173697
C       -0.4976462301    1.4105237786   -0.3276525945
N        0.8452430444    1.4534752732   -0.3999693641
H        2.5492636532    0.2853605296   -0.3448640927
H        1.3713321048   -1.9180412874   -0.2991181567
H       -1.1535816360   -1.9585360555   -0.2940819755
H       -2.3482997314    0.2663791511   -0.2931674815
H       -1.0047944885    2.3699191661   -0.3433258141
C        0.1103916095    0.1865691614    1.3633859236
H       -0.2630185123   -0.5409974668    2.1571742681
13   
From optimize.out: Frame 5 / 57, Energy=    -286.7126973484
C        1.4695701228    0.2408787958   -0.3063003675
C        0.7870575382   -1.0064512675   -0.2862608066
C       -0.6087928235   -1.0307789634   -0.3032035445
C       -1.2654205566    0.2031567983   -0.2890015338
C       -0.5049650710    1.4064849871   -0.3153051915
N        0.8384864019    1.4324694505   -0.3629045030
H        2.5484124622    0.2636265559   -0.3130342455
H        1.3479176648   -1.9282538651   -0.2745112558
H       -1.1546994302   -1.9561307482   -0.2733311011
H       -2.3438293051    0.2467602045   -0.2855057432
H       -1.0105009575    2.3597031812   -0.3223533794
C        0.1321482286    0.2381298679    1.2675734442
H       -0.2353842744   -0.4695949969    2.0641382277
13   
From optimize.out: Frame 2 / 57, Energy=    -286.6605056957
C        1.4713691364    0.2484920311   -0.2932278055
C        0.7887278704   -1.0048331483   -0.2497770263
C       -0.6095597126   -1.0373724227   -0.2726158156
C       -1.2621490707    0.2021460878   -0.2651941261
C       -0.4984119839    1.4100690184   -0.3174826565
N        0.8427770473    1.4393536494   -0.3878131882
H        2.5591222124    0.2639209664   -0.2999123343
H        1.3513858362   -1.9355883459   -0.2179478511
H       -1.1573895083   -1.9673232755   -0.2205953810
H       -2.3497843566    0.2411369512   -0.2530006900
H       -1.0164626809    2.3661957622   -0.3347776700
C        0.1392535325    0.2631382848    1.1585826419
H       -0.2588783223   -0.4893355589    1.9537619028
13   
C5H5N+CH->C6H6N atoms 1-13 frame 55 charge +0.000 sz -1.000 sz^2 0.927
C        1.4730733002    0.2576009174   -0.2818468337
C        0.7906129317   -1.0035314624   -0.2135682563
C       -0.6112476027   -1.0477334421   -0.2452869407
C       -1.2589612519    0.2020618252   -0.2404504134
C       -0.4909165226    1.4149489339   -0.3226793412
N        0.8489081533    1.4504520581   -0.4236543632
H        2.5691452743    0.2664880771   -0.2852346464
H        1.3564478928   -1.9405902620   -0.1565334062
H       -1.1604161641   -1.9797577294   -0.1707633317
H       -2.3551493121    0.2379692848   -0.2130451774
H       -1.0213602849    2.3729659077   -0.3487389711
C        0.1448591723    0.2845264398    1.0610602818
H       -0.2849955862   -0.5154005482    1.8407413996
13   
C5H5N+CH->C6H6N atoms 1-13 frame 57 charge +0.000 sz -1.000 sz^2 0.847
C        1.4767695054    0.2700791046   -0.2719876903
C        0.7916777981   -1.0066714328   -0.1802638016
C       -0.6122046313   -1.0614188830   -0.2228683271
C       -1.2582065309    0.2010892906   -0.2161518240
C       -0.4815619728    1.4241586493   -0.3306024454
N        0.8566876347    1.4655641828   -0.4704654525
H        2.5714647333    0.2704179372   -0.2660056738
H        1.3589357766   -1.9376306071   -0.0911637347
H       -1.1624390257   -1.9918630771   -0.1233692225
H       -2.3522107580    0.2371442526   -0.1634366149
H       -1.0229899739    2.3740270312   -0.3626482210
C        0.1436592123    0.2947470001    0.9732584707
H       -0.3095817678   -0.5396434485    1.7257045371
13   
C5H5N+CH->C6H6N atoms 1-13 frame 60 charge +0.000 sz -1.000 sz^2 0.552
C        1.4806826680    0.2828250872   -0.2631370025
C        0.7920693920   -1.0135773181   -0.1518477401
C       -0.6170335579   -1.0806637568   -0.2096955877
C       -1.2598649896    0.1988183109   -0.1951838737
C       -0.4717898251    1.4357434399   -0.3421856604
N        0.8665110263    1.4849376497   -0.5290954923
H        2.5663680151    0.2753095566   -0.2396061996
H        1.3592781194   -1.9284112570   -0.0186445297
H       -1.1651128587   -2.0040050230   -0.0864455475
H       -2.3420940052    0.2401255795   -0.1027336481
H       -1.0205760558    2.3708397192   -0.3716687895
C        0.1358026244    0.2901315078    0.8999551934
H       -0.3242405528   -0.5520734959    1.6102888777
13   
C5H5N+CH->C6H6N atoms 1-13 frame 63 charge -0.000 sz -1.000 sz^2 0.694
C        1.4838656391    0.2962809310   -0.2565653409
C        0.7912794433   -1.0256056556   -0.1353039747
C       -0.6257553817   -1.1054382298   -0.2134754099
C       -1.2632739175    0.1946757989   -0.1820474218
C       -0.4609350811    1.4507002516   -0.3584376951
N        0.8788613760    1.5097055671   -0.6004717122
H        2.5592887918    0.2812566857   -0.2021315049
H        1.3600155435   -1.9179096017    0.0595266400
H       -1.1710508115   -2.0206182617   -0.0660517637
H       -2.3287854815    0.2482318624   -0.0269012169
H       -1.0174413536    2.3704238666   -0.3735989992
C        0.1176394950    0.2640566678    0.8413295729
H       -0.3237082619   -0.5457598823    1.5141288265
13   
C5H5N+CH->C6H6N atoms 1-13 frame 68 charge -0.000 sz -1.000 sz^2 0.700
C        1.4830680994    0.3078873680   -0.2542511765
C        0.7889133215   -1.0406270781   -0.1386422894
C       -0.6389631815   -1.1343293711   -0.2424039215
C       -1.2656433358    0.1903005444   -0.1819739856
C       -0.4495700059    1.4675281069   -0.3807889538
N        0.8918365153    1.5390580329   -0.6783978492
H        2.5584677217    0.2881380083   -0.1527386985
H        1.3643722805   -1.9138695946    0.1350482587
H       -1.1838866980   -2.0459136938   -0.0717171042
H       -2.3192767651    0.2622933230    0.0609629950
H       -1.0180563014    2.3828253473   -0.3672950156
C        0.0918783499    0.2181500580    0.8008958617
H       -0.3031400006   -0.5214410512    1.4713018789
13   
C5H5N+CH->C6H6N atoms 1-13 frame 71 charge +0.000 sz -1.000 sz^2 0.511
C        1.4774625140    0.3166379800   -0.2581718665
C        0.7858327707   -1.0545522153   -0.1611489815
C       -0.6536961403   -1.1614342416   -0.2915158628
C       -1.2651738222    0.1879437426   -0.1931271131
C       -0.4391182563    1.4847084938   -0.4075844375
N        0.9015272602    1.5684675505   -0.7500173583
H        2.5593216235    0.2959583939   -0.1007301326
H        1.3690272280   -1.9122021871    0.1921114601
H       -1.2005298907   -2.0736868358   -0.0993136566
H       -2.3078401984    0.2788307951    0.1454926600
H       -1.0213962011    2.4042280984   -0.3572894701
C        0.0672709208    0.1655197109    0.7759024733
H       -0.2726878081   -0.5004192853    1.5053922856
13   
C5H5N+CH->C6H6N atoms 1-13 frame 73 charge -0.000 sz -1.000 sz^2 0.722
C        1.4692545783    0.3254701625   -0.2657461312
C        0.7832341523   -1.0656209731   -0.1922964461
C       -0.6650071037   -1.1797012494   -0.3448647930
C       -1.2612613548    0.1876396621   -0.2069698280
C       -0.4308510069    1.5021214819   -0.4341487343
N        0.9067214924    1.5924733649   -0.8075805854
H        2.5523988735    0.3038932910   -0.0559392169
H        1.3689300047   -1.9062764491    0.2245414966
H       -1.2145860938   -2.0943762685   -0.1317981424
H       -2.2861287243    0.2922752567    0.2138420738
H       -1.0240246498    2.4228927460   -0.3503483878
C        0.0464296162    0.1136152663    0.7612802541
H       -0.2451097839   -0.4944062914    1.5900284406
13   
C5H5N+CH->C6H6N atoms 1-13 frame 76 charge -0.000 sz -1.000 sz^2 0.518
C        1.4330916239    0.3300148552   -0.2518968877
C        0.7828792146   -1.0565490576   -0.2090601905
C       -0.6485229414   -1.1421831136   -0.3483944989
C       -1.2249227520    0.2018992687   -0.1958732534
C       -0.4372321944    1.5024490413   -0.4597275686
N        0.8754593747    1.5538109554   -0.7949365638
H        2.5069602156    0.3178992855   -0.0443640310
H        1.3641314053   -1.8986545005    0.1758264174
H       -1.2037408415   -2.0525988455   -0.1429306124
H       -2.2374775256    0.3049770150    0.2109689441
H       -1.0271710910    2.4217084591   -0.4094157046
C        0.0495280697    0.0680869897    0.8079746009
H       -0.2329825578   -0.5508603526    1.6618293485
13   
From optimize.out: Frame 1 / 54, Energy=    -286.6258382465
C        1.3970312426    0.3320174979   -0.2355142660
C        0.7870168666   -1.0533341314   -0.2207931564
C       -0.6365344446   -1.1116258159   -0.3478857550
C       -1.1891735977    0.2239269337   -0.1845125117
C       -0.4517865432    1.5081769675   -0.4977043077
N        0.8442706648    1.5213599317   -0.7795531684
H        2.4642340811    0.3318942217   -0.0220631217
H        1.3678293405   -1.8965291054    0.1379797923
H       -1.1997025834   -2.0157567367   -0.1454894850
H       -2.1940803899    0.3314975102    0.2146269123
H       -1.0370540679    2.4274118164   -0.4827326745
C        0.0586843770    0.0148420249    0.8479833945
H       -0.2107349459   -0.6138811146    1.7156583474
13   
From optimize.out: Frame 4 / 54, Energy=    -286.6976593611
C        1.3635329787    0.3335396095   -0.2137039985
C        0.7917381778   -1.0521783118   -0.2351964933
C       -0.6296880753   -1.0885818144   -0.3501616456
C       -1.1593014539    0.2513570877   -0.1674276011
C       -0.4699473509    1.5133396109   -0.5426849171
N        0.8237442794    1.4969747456   -0.7723363554
H        2.4229460619    0.3464892093    0.0226017713
H        1.3737937108   -1.8979430196    0.1007864770
H       -1.2002685677   -1.9859498416   -0.1443310214
H       -2.1575077973    0.3619478054    0.2353521307
H       -1.0478786523    2.4338002304   -0.5670956428
C        0.0691760557   -0.0404954287    0.8783024341
H       -0.1803393668   -0.6722998827    1.7558948620
13   
From optimize.out: Frame 6 / 54, Energy=    -286.7319908775
C        1.3354786435    0.3370927542   -0.1876761292
C        0.7951847598   -1.0513762163   -0.2543186968
C       -0.6278707462   -1.0698693264   -0.3534992174
C       -1.1368895613    0.2788110989   -0.1435220973
C       -0.4866685263    1.5164223582   -0.5901292629
N        0.8137168289    1.4816852834   -0.7702079366
H        2.3852535152    0.3622665961    0.0847187825
H        1.3791158130   -1.9024997632    0.0590553175
H       -1.2047865631   -1.9608548305   -0.1385347062
H       -2.1298036710    0.3865609096    0.2703005433
H       -1.0541414272    2.4390160871   -0.6596563072
C        0.0774651795   -0.0944000968    0.8995776559
H       -0.1460542447   -0.7228548543    1.7838920545
13   
From optimize.out: Frame 9 / 54, Energy=    -286.7658450263
C        1.3130934574    0.3426379708   -0.1576099224
C        0.7970842079   -1.0498521319   -0.2777777515
C       -0.6317560870   -1.0545412680   -0.3572423246
C       -1.1205851747    0.3040441434   -0.1135433927
C       -0.4993089527    1.5158099088   -0.6369392214
N        0.8104640540    1.4745542776   -0.7687508855
H        2.3508887310    0.3782076724    0.1579335408
H        1.3828404383   -1.9082063532    0.0128307880
H       -1.2136467707   -1.9395504103   -0.1292913621
H       -2.1093759183    0.4047762199    0.3141860611
H       -1.0545554247    2.4398424189   -0.7564040941
C        0.0833930954   -0.1444072557    0.9109368949
H       -0.1085356560   -0.7633151926    1.8016716697
13   
From optimize.out: Frame 12 / 54, Energy=    -286.7832204408
C        1.2941344338    0.3487469530   -0.1219593873
C        0.7971167034   -1.0471009172   -0.3063696878
C       -0.6415963732   -1.0428113575   -0.3632070862
C       -1.1083105659    0.3266783907   -0.0788716883
C       -0.5066837033    1.5101539134   -0.6796037197
N        0.8109592282    1.4738855760   -0.7626391321
H        2.3176835132    0.3911862094    0.2380931293
H        1.3838011215   -1.9133358970   -0.0374726569
H       -1.2259637514   -1.9223971309   -0.1185023300
H       -2.0941033472    0.4194247850    0.3611312844
H       -1.0501578923    2.4326439221   -0.8534578345
C        0.0882343228   -0.1881138473    0.9103869439
H       -0.0651136896   -0.7889605999    1.8124721651
13   
From optimize.out: Frame 17 / 54, Energy=    -286.7954280550
C        1.2748982161    0.3534204888   -0.0781669957
C        0.7955823966   -1.0444511413   -0.3433367461
C       -0.6571418880   -1.0364333311   -0.3758648155
C       -1.0985729445    0.3460268958   -0.0418547224
C       -0.5074584710    1.5008845806   -0.7120888200
N        0.8130562052    1.4795366769   -0.7465190480
H        2.2840803531    0.3966481835    0.3209760785
H        1.3814008494   -1.9177584573   -0.0903067163
H       -1.2397107042   -1.9106293329   -0.1057589201
H       -2.0832373326    0.4313167092    0.4052034545
H       -1.0422352961    2.4159212138   -0.9461715674
C        0.0931025421   -0.2236249296    0.8951506032
H       -0.0137639261   -0.7908575563    1.8187382153
13   
From optimize.out: Frame 20 / 54, Energy=    -286.8008414849
C        1.2537286797    0.3531162251   -0.0270803302
C        0.7946160564   -1.0448049026   -0.3931411803
C       -0.6777599721   -1.0383952000   -0.4065296711
C       -1.0911478826    0.3576216899   -0.0029093380
C       -0.4997518867    1.4924312784   -0.7223281663
N        0.8147223188    1.4907180820   -0.7193063407
H        2.2520982423    0.3914329050    0.3986902812
H        1.3773183409   -1.9219296958   -0.1398465787
H       -1.2520105195   -1.9049163350   -0.0924404862
H       -2.0765376515    0.4341429415    0.4459047993
H       -1.0301378681    2.3906675207   -1.0257771910
C        0.0971709931   -0.2457796340    0.8639510694
H        0.0376911492   -0.7543048751    1.8208131327
13   
From optimize.out: Frame 22 / 54, Energy=    -286.8058903835
C        1.2397820838    0.3454348005    0.0190020865
C        0.7938653293   -1.0468745840   -0.4438361699
C       -0.7043143516   -1.0459751737   -0.4762113327
C       -1.0842161635    0.3548675219    0.0440353185
C       -0.4867921080    1.4875074959   -0.6986908350
N        0.8126680169    1.5026595913   -0.6895949241
H        2.2350624519    0.3765084859    0.4515558074
H        1.3705157105   -1.9237406424   -0.1701980702
H       -1.2603604725   -1.9013158715   -0.0962919439
H       -2.0717000951    0.4205855352    0.4898107513
H       -1.0168623197    2.3566005692   -1.0817241950
C        0.0983282694   -0.2465442194    0.8295923547
H        0.0740236487   -0.6797135087    1.8225511525
13   
From optimize.out: Frame 25 / 54, Energy=    -286.8168948390
C        1.2455776526    0.3340220351    0.0460595520
C        0.7794100654   -1.0456927062   -0.4513385202
C       -0.7377734475   -1.0500673226   -0.5857837581
C       -1.0762163447    0.3384370253    0.0869503981
C       -0.4759506771    1.4832275607   -0.6542997280
N        0.8074537082    1.5082987461   -0.6789477007
H        2.2484421255    0.3574457214    0.4595050251
H        1.3480538106   -1.9241965803   -0.1629860729
H       -1.2686421671   -1.8969436197   -0.1452100179
H       -2.0661199564    0.3969437797    0.5275250708
H       -1.0171086477    2.3207539043   -1.0917139090
C        0.1079660052   -0.2223630401    0.8170696726
H        0.1049078729   -0.5998655037    1.8331699880
13   
From optimize.out: Frame 28 / 54, Energy=    -286.8313771912
C        1.2666815524    0.3226098570    0.0539577927
C        0.7527550027   -1.0428833664   -0.4228042022
C       -0.7615214041   -1.0602776957   -0.6772021404
C       -1.0712944729    0.3169844084    0.1015280072
C       -0.4677603444    1.4873000422   -0.6086623506
N        0.8067641092    1.5154336562   -0.6799102862
H        2.2840854251    0.3356376942    0.4301758250
H        1.3144375293   -1.9287455644   -0.1380042955
H       -1.2796524691   -1.9085160240   -0.2193894219
H       -2.0639507252    0.3776553837    0.5390513889
H       -1.0379472507    2.3000677585   -1.0593261373
C        0.1274342367   -0.1837036210    0.8271066409
H        0.1299688108   -0.5315625288    1.8534791793
13   
From optimize.out: Frame 30 / 54, Energy=    -286.8343767473
C        1.2800938237    0.3147914321    0.0536096071
C        0.7185831839   -1.0415913012   -0.3654586009
C       -0.7597364540   -1.0493922525   -0.7282822880
C       -1.0633582964    0.2959779914    0.1055490712
C       -0.4692657878    1.4983057930   -0.5772223736
N        0.8079164746    1.5190500217   -0.6832496295
H        2.3133077525    0.3231179855    0.3870111963
H        1.2803743118   -1.9420140254   -0.1240863801
H       -1.2937193305   -1.9142420400   -0.3289562487
H       -2.0586690342    0.3684446548    0.5448004002
H       -1.0650914040    2.2844559232   -1.0438141208
C        0.1529988986   -0.1584781508    0.8673886242
H        0.1565658618   -0.4984260320    1.8927107425
13   
From optimize.out: Frame 33 / 54, Energy=    -286.8354800025
C        1.2751174842    0.3161976063    0.0584067423
C        0.6847536967   -1.0372834796   -0.3078994928
C       -0.7461451719   -1.0066920734   -0.7417851830
C       -1.0494825519    0.2792987088    0.1174974061
C       -0.4745896458    1.4944875420   -0.5778108889
N        0.8065520345    1.5086580903   -0.6839247002
H        2.3177204936    0.3267264281    0.3632369160
H        1.2555853493   -1.9486950294   -0.1428554609
H       -1.3150797391   -1.8870912131   -0.4481896903
H       -2.0468510977    0.3644425084    0.5556230428
H       -1.0782096366    2.2600539381   -1.0666099941
C        0.1775664400   -0.1645968526    0.9254698003
H        0.1930623447   -0.5055061740    1.9488415027
13   
From optimize.out: Frame 36 / 54, Energy=    -286.8356434967
C        1.2669766381    0.3212973191    0.0681240616
C        0.6626313274   -1.0380799012   -0.2620734184
C       -0.7383549165   -0.9661107147   -0.7445903608
C       -1.0382759812    0.2689766202    0.1382539354
C       -0.4776439806    1.4784222839   -0.5871479769
N        0.8006296425    1.4868980897   -0.6841685099
H        2.3126018779    0.3318783167    0.3594164146
H        1.2519754083   -1.9465172633   -0.1787347244
H       -1.3473557273   -1.8500832933   -0.5694423472
H       -2.0330902798    0.3645578056    0.5765312392
H       -1.0837474646    2.2272031958   -1.0960237210
C        0.1939441812   -0.1776813804    0.9737121001
H        0.2297092746   -0.5007610780    2.0061433076
13   
From optimize.out: Frame 39 / 54, Energy=    -286.8357630750
C        1.2609391230    0.3230567891    0.0779356595
C        0.6468651766   -1.0503501874   -0.2208435338
C       -0.7341894942   -0.9436542526   -0.7420597843
C       -1.0344961048    0.2633850525    0.1609572675
C       -0.4800642117    1.4630849196   -0.5912632764
N        0.7960172061    1.4649404028   -0.6843924675
H        2.3069140646    0.3257376231    0.3650792642
H        1.2637469500   -1.9423303135   -0.2143058309
H       -1.3803802917   -1.8155809313   -0.7008955044
H       -2.0250702010    0.3651033777    0.6029962499
H       -1.0915857880    2.1955843398   -1.1154333850
C        0.2040679875   -0.1878743987    1.0063978569
H        0.2672355837   -0.4611024212    2.0558274843
13   
From optimize.out: Frame 41 / 54, Energy=    -286.8361921418
C        1.2589966247    0.3207327096    0.0843255930
C        0.6346864649   -1.0717894097   -0.1886251773
C       -0.7320391245   -0.9407102441   -0.7294701116
C       -1.0348790842    0.2600983623    0.1842125749
C       -0.4826727488    1.4522414192   -0.5860478484
N        0.7941126968    1.4528671750   -0.6853366837
H        2.3063604197    0.3127998461    0.3672921909
H        1.2770200929   -1.9451914164   -0.2254648375
H       -1.4080068379   -1.7799170977   -0.8388176711
H       -2.0231716603    0.3551726403    0.6329502044
H       -1.1017089830    2.1700364447   -1.1215190751
C        0.2127655356   -0.1918676263    1.0207509272
H        0.2985366042   -0.3944728031    2.0857499144
13   
From optimize.out: Frame 48 / 54, Energy=    -286.8382224568
C        1.2638742415    0.3214116542    0.0819465981
C        0.6264216702   -1.0866977307   -0.1651064607
C       -0.7335969094   -0.9472548922   -0.6968731494
C       -1.0313418147    0.2535102011    0.2066434041
C       -0.4901312588    1.4417458055   -0.5793379933
N        0.7865642998    1.4475366900   -0.6910552867
H        2.3173439050    0.3119759159    0.3422161521
H        1.2661580606   -1.9629379056   -0.1868044057
H       -1.4145589363   -1.7327438039   -0.9852027500
H       -2.0154847872    0.3449290629    0.6674679636
H       -1.1146565665    2.1476415742   -1.1245551946
C        0.2307581210   -0.1806679153    1.0308241932
H        0.3086499747   -0.3584486561    2.0998369295
13   
From optimize.out: Frame 50 / 54, Energy=    -286.8383128120
C        1.2638039689    0.3236192316    0.0844724203
C        0.6153293893   -1.0994959380   -0.1381482786
C       -0.7444819893   -0.9598326106   -0.6569785503
C       -1.0331859655    0.2453782899    0.2287774388
C       -0.4973598812    1.4234896245   -0.5831289405
N        0.7790617367    1.4316295916   -0.6999818846
H        2.3209961724    0.3094185689    0.3294241203
H        1.2621129860   -1.9703923866   -0.1644057710
H       -1.4032954028   -1.6683672182   -1.1284203572
H       -2.0099066402    0.3565900866    0.7022616151
H       -1.1264761463    2.1181773800   -1.1373007993
C        0.2430453279   -0.1723683926    1.0466710405
H        0.3303564442   -0.3378462272    2.1167579465
13   
From optimize.out: Frame 53 / 54, Energy=    -286.8383313550
C        1.2627185784    0.3231840709    0.0852099714
C        0.6032699423   -1.1141875500   -0.1117812245
C       -0.7574618709   -0.9809425850   -0.6128877445
C       -1.0347158247    0.2391976726    0.2486853168
C       -0.5054901135    1.4061322230   -0.5854057029
N        0.7708497555    1.4147884941   -0.7111523233
H        2.3234074255    0.3059340397    0.3145434259
H        1.2570667470   -1.9797312642   -0.1408778847
H       -1.3732582773   -1.5828184410   -1.2595814212
H       -2.0065466106    0.3632601313    0.7301774105
H       -1.1395409165    2.0915045467   -1.1455688571
C        0.2527458933   -0.1658526821    1.0588497251
H        0.3469552717   -0.3204686559    2.1297893086
13   
From optimize.out: Frame 1 / 3, Energy=    -286.8383090703
C        1.2600667207    0.3193613247    0.0845321195
C        0.5910389323   -1.1294710179   -0.0867065349
C       -0.7731587033   -1.0077382123   -0.5712829609
C       -1.0357621541    0.2347146058    0.2655331168
C       -0.5148526272    1.3899470071   -0.5867916392
N        0.7610017232    1.3976085711   -0.7232728650
H        2.3238041490    0.2994720818    0.2987841825
H        1.2518176516   -1.9897712424   -0.1164302397
H       -1.3242728995   -1.4796991553   -1.3754497641
H       -2.0037697504    0.3665728843    0.7535912258
H       -1.1540021144    2.0678861811   -1.1502809530
C        0.2583566638   -0.1625607877    1.0680437110
H        0.3597324082   -0.3063222403    2.1397306010
13   
From optimize.out: Frame 2 / 3, Energy=    -286.8383125648
C        1.2554438109    0.3051387786    0.0798865210
C        0.5870576059   -1.1365746071   -0.0716404274
C       -0.7817308566   -1.0226423988   -0.5568615767
C       -1.0364777726    0.2319706169    0.2756994479
C       -0.5232097290    1.3795709905   -0.5854999817
N        0.7516877554    1.3833881429   -0.7332607110
H        2.3203727176    0.2896940281    0.2881425752
H        1.2443411958   -2.0002469418   -0.0922502474
H       -1.2747494198   -1.3919856153   -1.4530726234
H       -2.0030793770    0.3576662782    0.7685436230
H       -1.1661554240    2.0583343054   -1.1436336877
C        0.2567306395   -0.1634896600    1.0757518213
H        0.3697688540   -0.2908239177    2.1481952668
