13   
From optimize.out: Frame 1 / 3, Energy=    -286.8754986296
C        1.6830456856    0.4582708299   -0.3395986944
C        1.1436470348   -0.8364130219   -0.4024921417
C       -0.3443638597   -0.7189627821   -0.4459491539
C       -1.2138701825    0.6470516125    0.9266831490
C       -0.5147891376    0.8526342432   -0.4173237838
N        0.8097546779    1.4604556914   -0.3441852550
H        2.7469500807    0.6792510496   -0.2644296995
H        1.7122654691   -1.7597373488   -0.3792063384
H       -0.8317265337   -1.2911808354   -1.2463824331
H       -1.6233119030    1.3576989831    1.6382580500
H       -1.1171114703    1.3180037844   -1.2073662846
C       -1.0838117365   -0.6838856717    0.9011212100
H       -1.3666781248   -1.4831865341    1.5808713754
13   
From optimize.out: Frame 2 / 3, Energy=    -286.8755019532
C        1.6831744845    0.4584666459   -0.3394610987
C        1.1428246937   -0.8357097773   -0.4011772374
C       -0.3450695232   -0.7180995470   -0.4470663201
C       -1.2132810110    0.6463782826    0.9264386021
C       -0.5152721217    0.8526160185   -0.4182378068
N        0.8095264866    1.4600089836   -0.3453015787
H        2.7471733894    0.6788654276   -0.2640980294
H        1.7110666255   -1.7590896976   -0.3767308485
H       -0.8311323398   -1.2903924302   -1.2480969475
H       -1.6210547845    1.3571436087    1.6388109526
H       -1.1181280323    1.3182155344   -1.2075969398
C       -1.0839683365   -0.6845122378    0.9009751401
H       -1.3658595308   -1.4838908114    1.5815421122
