13   
Frame   0 IRC: Energy =  -286.8724810000 ; +0.0000 kcal/mol
C        1.2214628000    0.0608277424   -0.0323574882
C        0.6041937545   -0.8892691539    0.9978613589
C       -0.7100448091   -0.9517040170    0.7314628528
C       -0.9604582558   -0.0438604289   -0.4833593652
C       -0.5641358383    1.3805540591   -0.0205439714
N        0.6842111509    1.4753395300    0.2512287681
H        2.3050788893    0.0692712934   -0.1253073357
H        1.1469894326   -1.3575771368    1.8096238223
H       -1.4846406833   -1.4804139322    1.2733196261
H       -1.9110920790   -0.1470829796   -1.0053105181
H       -1.2477983797    2.2209653928    0.0835624350
C        0.3551212451   -0.3027131347   -1.2232575392
H        0.5611127723   -0.0343372340   -2.2569226456
13   
Frame   1 IRC: Energy =  -286.8715051461 ; +0.6124 kcal/mol
C        1.2210141000    0.0929482960   -0.0317430424
C        0.6051018854   -0.8784854381    0.9837172125
C       -0.7089464183   -0.9421921436    0.7146589989
C       -0.9600078738   -0.0146200968   -0.4889680169
C       -0.5703660015    1.3995174417    0.0067950825
N        0.6753506875    1.4951479125    0.2824894613
H        2.3036533967    0.1083406200   -0.1228482905
H        1.1530767143   -1.3703822749    1.7799974886
H       -1.4817023182   -1.4947801897    1.2380354993
H       -1.9088089562   -0.1117346238   -1.0141252347
H       -1.2633799492    2.2307325177    0.1457944885
C        0.3565631122   -0.2861127121   -1.2171497080
H        0.5784516210   -0.2283793088   -2.2766539392
13   
Frame   2 IRC: Energy =  -286.8703627768 ; +1.3292 kcal/mol (Transition State)
C        1.2207136159    0.1208411737   -0.0329728251
C        0.6093365865   -0.8789849033    0.9617339014
C       -0.7051187534   -0.9439600293    0.6908929363
C       -0.9594139777    0.0106523266   -0.4952462990
C       -0.5780013455    1.4161397296    0.0376290852
N        0.6660996398    1.5093866839    0.3209215769
H        2.3043545503    0.1399076184   -0.1225423931
H        1.1562598500   -1.3770813267    1.7532187028
H       -1.4749326326   -1.5020147812    1.2103176097
H       -1.9080608801   -0.0821305638   -1.0223459654
H       -1.2742462188    2.2394428809    0.1852390276
C        0.3575581831   -0.2232681432   -1.2251055915
H        0.5854513824   -0.4289306654   -2.2617397658
13   
Frame   3 IRC: Energy =  -286.8709463440 ; +0.9630 kcal/mol
C        1.2206867457    0.1453192515   -0.0355583937
C        0.6153835499   -0.8817895583    0.9338011038
C       -0.6987503835   -0.9483281137    0.6605674775
C       -0.9588542643    0.0334510280   -0.5016877588
C       -0.5837262724    1.4278647496    0.0621027923
N        0.6589173685    1.5193333955    0.3511002573
H        2.3045459222    0.1667228889   -0.1236971608
H        1.1590736958   -1.3819215395    1.7272286118
H       -1.4666285562   -1.5081422682    1.1827257219
H       -1.9075605428   -0.0564268682   -1.0293400865
H       -1.2821544050    2.2481790529    0.2121223816
C        0.3591980897   -0.1453031566   -1.2461025908
H        0.5798690523   -0.6189588618   -2.1932623554
13   
Frame   4 IRC: Energy =  -286.8726254101 ; -0.0906 kcal/mol
C        1.2204567563    0.1729892193   -0.0395211658
C        0.6212444368   -0.8776465378    0.9069966157
C       -0.6930982775   -0.9453207761    0.6307667316
C       -0.9580714061    0.0599617073   -0.5091746904
C       -0.5883521477    1.4429693558    0.0768408950
N        0.6537455344    1.5326224324    0.3665898474
H        2.3044225653    0.1985427886   -0.1265126530
H        1.1655766350   -1.3924358886    1.6909293333
H       -1.4572470571   -1.5212370200    1.1413904662
H       -1.9065024432   -0.0263681363   -1.0378835780
H       -1.2893615477    2.2578890077    0.2414931770
C        0.3619781336   -0.1110474185   -1.2604499793
H        0.5652088179   -0.7909187338   -2.0814649997
13   
Frame   5 IRC: Energy =  -286.8734760000 ; -0.6244 kcal/mol
C        1.2200208590    0.2021307065   -0.0427257222
C        0.6251242694   -0.8655384578    0.8880243588
C       -0.6898767842   -0.9348101996    0.6091423496
C       -0.9584593657    0.0871177841   -0.5145908733
C       -0.5911206233    1.4621958467    0.0804508068
N        0.6511026457    1.5514332993    0.3671480094
H        2.3037575172    0.2321697063   -0.1300456364
H        1.1778668061   -1.4132523075    1.6436468416
H       -1.4477267316   -1.5467440418    1.0868727038
H       -1.9062384350    0.0051128684   -1.0448870829
H       -1.2946692225    2.2708487463    0.2662445315
C        0.3636754105   -0.1115510051   -1.2633594307
H        0.5465436545   -0.9391129459   -1.9459208559
