13   
From optimize.out: Frame 1 / 2, Energy=    -286.8377615165
C        1.2126239819    0.0361848842    0.0372083026
C        0.6307112700   -1.0403686793    0.9196791699
C       -0.6974578799   -1.0713100486    0.7283916818
C       -1.0553629537   -0.1046590976   -0.3430008212
C       -0.3915535410    1.3476091104   -0.2059449721
N        0.7796220783    1.4033690950    0.5670903529
H        2.2831182215    0.0044716673   -0.1695556388
H        1.1910480792   -1.5545772926    1.6922047449
H       -1.4275877708   -1.6330782555    1.3010729747
H       -2.0251434222   -0.0928111491   -0.8308302739
H       -1.0008124281    2.2234186946   -0.4092886851
C        0.1727068698    0.2393605796   -1.1059357165
H        0.3280874955    0.2423904911   -2.1810911198
