13   
From optimize.out: Frame 1 / 26, Energy=    -286.6936324126
C        1.4028296556    0.2088276836   -1.4943198027
C        0.6065414170   -1.0059615539   -1.2472863349
C       -0.5638290606   -0.6582967983   -2.0565703507
C       -1.0444907237    0.2248110455   -0.5318853283
C       -0.5974984445    0.8700410370   -2.1088847227
N        0.6535680933    1.3381734751   -1.7669688450
H        2.4606957194    0.1944585309   -1.7384961424
H        1.0564885909   -1.9339091054   -1.6570737361
H       -1.5492461655   -1.1686006137   -2.4154767780
H       -1.9667009337    0.7555788142   -0.3742129454
H       -1.1429451665    1.5647860572   -2.7919028783
C       -0.4681029999   -1.0929788885   -0.0454883453
H       -0.3243746206   -1.3114819232    1.0441193973
13   
From optimize.out: Frame 2 / 26, Energy=    -286.7268543876
C        1.4214509128    0.2039366111   -1.4994610333
C        0.5978114520   -1.0104468648   -1.2711144546
C       -0.5923486141   -0.6454240948   -2.0795679688
C       -1.0683205581    0.2120891066   -0.5397883589
C       -0.5956720729    0.8571044516   -2.0935303682
N        0.6865278397    1.3113055880   -1.7740437470
H        2.4872993658    0.1936055123   -1.7037994296
H        1.0531650708   -1.9421079009   -1.6519343178
H       -1.5496268569   -1.1560381829   -2.4201898609
H       -2.0019436924    0.7245022342   -0.3578864842
H       -1.1537970592    1.5475874133   -2.7510430020
C       -0.4612470154   -1.0545391556   -0.0627253873
H       -0.3003634109   -1.2561269576    1.0206376002
13   
From optimize.out: Frame 3 / 26, Energy=    -286.7533419934
C        1.4221099923    0.2004963507   -1.5077500710
C        0.5865976361   -1.0189418355   -1.2917189851
C       -0.6118354427   -0.6348508122   -2.1040646768
C       -1.0821205222    0.2050410533   -0.5537482740
C       -0.5927666495    0.8438794668   -2.0715947723
N        0.7155396019    1.2875106488   -1.7798038523
H        2.4956353684    0.1922710856   -1.6669889150
H        1.0452623955   -1.9553980093   -1.6416729533
H       -1.5396397274   -1.1508655729   -2.4328664677
H       -2.0231333554    0.6992837779   -0.3459811293
H       -1.1663097239    1.5329217793   -2.7015638888
C       -0.4516480882   -1.0147264590   -0.0823144543
H       -0.2747561240   -1.2011737127    0.9956216273
13   
From optimize.out: Frame 4 / 26, Energy=    -286.7730641996
C        1.4255917282    0.1933901364   -1.5155200158
C        0.5762813666   -1.0281358659   -1.3104844504
C       -0.6274823785   -0.6271142761   -2.1301154804
C       -1.0974349962    0.2039086344   -0.5722626973
C       -0.5946281954    0.8385619989   -2.0485148625
N        0.7384493022    1.2696990042   -1.7872074365
H        2.5062516079    0.1822324813   -1.6263589726
H        1.0380394200   -1.9703867974   -1.6291783273
H       -1.5340065493   -1.1546871374   -2.4548832907
H       -2.0455496099    0.6773867073   -0.3395470154
H       -1.1853554363    1.5291872047   -2.6519293806
C       -0.4352625676   -0.9778198508   -0.0961277824
H       -0.2419583303   -1.1507744792    0.9776828993
13   
From optimize.out: Frame 5 / 26, Energy=    -286.7889023469
C        1.4275327669    0.1852402412   -1.5232964222
C        0.5652062415   -1.0372317323   -1.3269662081
C       -0.6405310891   -0.6227929430   -2.1566965793
C       -1.1099398356    0.2061475921   -0.5938556273
C       -0.5972219740    0.8357505276   -2.0236637182
N        0.7569088496    1.2577377838   -1.7949496194
H        2.5127585143    0.1701712570   -1.5859938495
H        1.0287286904   -1.9861665944   -1.6135971307
H       -1.5283650065   -1.1643069679   -2.4820070924
H       -2.0636824024    0.6579093173   -0.3350803643
H       -1.2045543776    1.5291267857   -2.6009320582
C       -0.4159172157   -0.9421087955   -0.1083573668
H       -0.2079878007   -1.1040287109    0.9609492239
13   
From optimize.out: Frame 6 / 26, Energy=    -286.8015363767
C        1.4292117340    0.1760441397   -1.5321161780
C        0.5539315942   -1.0450080683   -1.3412335236
C       -0.6507833490   -0.6199474301   -2.1835681322
C       -1.1209963453    0.2100930273   -0.6156392517
C       -0.6008937167    0.8346372950   -1.9980883559
N        0.7717544476    1.2482743211   -1.8044306667
H        2.5167041558    0.1569019471   -1.5478071767
H        1.0177937044   -2.0012439006   -1.5954383115
H       -1.5214129245   -1.1761791879   -2.5144605941
H       -2.0789341791    0.6386593377   -0.3294086048
H       -1.2229841571    1.5317731615   -2.5516039485
C       -0.3951170446   -0.9068733799   -0.1177624228
H       -0.1753385585   -1.0616835020    0.9471103540
13   
From optimize.out: Frame 7 / 26, Energy=    -286.8110639237
C        1.4299071472    0.1666247467   -1.5432959574
C        0.5421611205   -1.0511613451   -1.3537648771
C       -0.6584684347   -0.6176971433   -2.2102558410
C       -1.1312341074    0.2141850092   -0.6346891209
C       -0.6045325002    0.8351537973   -1.9741086156
N        0.7839024316    1.2408038465   -1.8170602002
H        2.5174433433    0.1443886152   -1.5118036953
H        1.0042941669   -2.0156119965   -1.5741855205
H       -1.5123915922   -1.1885372880   -2.5517949705
H       -2.0916798740    0.6175962027   -0.3188440282
H       -1.2378980218    1.5368993228   -2.5078425201
C       -0.3735286965   -0.8716120985   -0.1235326666
H       -0.1450396216   -1.0255839087    0.9367312009
13   
From optimize.out: Frame 8 / 26, Energy=    -286.8175231788
C        1.4299935540    0.1572278165   -1.5573563389
C        0.5302617284   -1.0554880382   -1.3648474347
C       -0.6639917694   -0.6152016675   -2.2350591364
C       -1.1414545413    0.2175770859   -0.6482863560
C       -0.6079741498    0.8375509212   -1.9547617045
N        0.7931348114    1.2345764413   -1.8333486768
H        2.5153659047    0.1338372281   -1.4773274186
H        0.9878117146   -2.0290330252   -1.5500053908
H       -1.5008406339   -1.1996913929   -2.5928401537
H       -2.1021719239    0.5944692908   -0.3009372906
H       -1.2484577980    1.5442772428   -2.4741434477
C       -0.3508486846   -0.8356807530   -0.1253357483
H       -0.1178928511   -0.9989733893    0.9298022844
13   
From optimize.out: Frame 9 / 26, Energy=    -286.8212493953
C        1.4295490507    0.1492364597   -1.5737115228
C        0.5195136276   -1.0582932738   -1.3742270665
C       -0.6681873301   -0.6131459514   -2.2549720123
C       -1.1495494713    0.2214116703   -0.6552417440
C       -0.6110939237    0.8402265851   -1.9421637122
N        0.7989457877    1.2293364760   -1.8517737927
H        2.5105534760    0.1286109217   -1.4452407925
H        0.9691710856   -2.0412688725   -1.5240091064
H       -1.4864397196   -1.2095218460   -2.6343221781
H       -2.1067949872    0.5750459063   -0.2756145860
H       -1.2560633413    1.5506361630   -2.4521404860
C       -0.3277102329   -0.7990855077   -0.1249975799
H       -0.0989586604   -0.9877409702    0.9239677670
13   
From optimize.out: Frame 10 / 26, Energy=    -286.8230279420
C        1.4294559490    0.1447163728   -1.5899745931
C        0.5124533650   -1.0595548815   -1.3805372496
C       -0.6705701492   -0.6127395742   -2.2674193357
C       -1.1519479476    0.2278341503   -0.6545926435
C       -0.6143995710    0.8407911435   -1.9368496780
N        0.8007988547    1.2253143426   -1.8713021475
H        2.5052431897    0.1311554871   -1.4215153960
H        0.9527253676   -2.0506121583   -1.4990060379
H       -1.4688616025   -1.2182696395   -2.6718161581
H       -2.1008898948    0.5692907897   -0.2448174469
H       -1.2646266868    1.5511166994   -2.4407557148
C       -0.3071795062   -0.7653934415   -0.1237494479
H       -0.0992660067   -0.9982015299    0.9178890365
13   
From optimize.out: Frame 11 / 26, Energy=    -286.8240569261
C        1.4294032550    0.1445558679   -1.6033257288
C        0.5092191874   -1.0590056826   -1.3829068538
C       -0.6690135267   -0.6152305015   -2.2765260916
C       -1.1477801196    0.2375349751   -0.6462475620
C       -0.6183731546    0.8372406593   -1.9356172863
N        0.7993275063    1.2226349457   -1.8896363124
H        2.5016922487    0.1393225805   -1.4130635418
H        0.9424009394   -2.0553005487   -1.4758374831
H       -1.4480079468   -1.2274178841   -2.7049071777
H       -2.0843088440    0.5807062190   -0.2102823469
H       -1.2755514995    1.5442878534   -2.4347841094
C       -0.2931056977   -0.7378222152   -0.1216844533
H       -0.1229669867   -1.0260585081    0.9103721346
13   
From optimize.out: Frame 12 / 26, Energy=    -286.8252943726
C        1.4286946390    0.1455449802   -1.6151343764
C        0.5061167341   -1.0577845665   -1.3838959690
C       -0.6631045845   -0.6198568599   -2.2898518928
C       -1.1410252848    0.2498434056   -0.6323791643
C       -0.6238315778    0.8305314245   -1.9340416625
N        0.7957880951    1.2195618441   -1.9071591602
H        2.4983922189    0.1484922202   -1.4105921912
H        0.9339593416   -2.0577495491   -1.4517071697
H       -1.4232455182   -1.2381757246   -2.7399000911
H       -2.0626874964    0.6001712375   -0.1709136072
H       -1.2879248118    1.5341231913   -2.4284935480
C       -0.2838426817   -0.7121178969   -0.1191592340
H       -0.1543537122   -1.0571359460    0.8987812539
13   
From optimize.out: Frame 13 / 26, Energy=    -286.8305542471
C        1.4296730147    0.1444389659   -1.6113332139
C        0.5071976366   -1.0540542772   -1.3863868348
C       -0.6381247746   -0.6366579045   -2.3271269409
C       -1.1412955949    0.2784634164   -0.5923830176
C       -0.6376267002    0.8131396407   -1.9334011154
N        0.7881640229    1.2111371106   -1.9031015698
H        2.5011294499    0.1476964545   -1.4172112502
H        0.9393286907   -2.0528434040   -1.4554744835
H       -1.3982407423   -1.2581684187   -2.7821981219
H       -2.0505874039    0.6481060295   -0.1212851947
H       -1.3025079835    1.5173598313   -2.4293835882
C       -0.3071997262   -0.7020770696   -0.1194996824
H       -0.1669745281   -1.0710926144    0.8943382009
13   
From optimize.out: Frame 14 / 26, Energy=    -286.8369988490
C        1.4209914460    0.1456388145   -1.6126017090
C        0.4995352166   -1.0547862661   -1.3912059224
C       -0.6114075155   -0.6480161017   -2.3717792588
C       -1.1249464661    0.2982473773   -0.5625968967
C       -0.6488106068    0.7897499993   -1.9272849764
N        0.7792148775    1.2080319265   -1.9096494311
H        2.4912869459    0.1561290137   -1.4131733461
H        0.9266692449   -2.0557960244   -1.4384994216
H       -1.3610823213   -1.2717567093   -2.8306514272
H       -2.0088763591    0.6818025378   -0.0575739538
H       -1.3203625741    1.4913682528   -2.4154650307
C       -0.3209608382   -0.6870288724   -0.1296166719
H       -0.1983156885   -1.0681361874    0.8756512333
13   
From optimize.out: Frame 15 / 26, Energy=    -286.8423508947
C        1.4152252356    0.1461778181   -1.6094453977
C        0.4941112628   -1.0534663699   -1.3947512262
C       -0.5829150131   -0.6595082590   -2.4114235376
C       -1.1185029708    0.3240613575   -0.5272174639
C       -0.6620806274    0.7673978791   -1.9260943549
N        0.7685122446    1.2035721781   -1.9100718059
H        2.4858408472    0.1606109548   -1.4128280584
H        0.9187453074   -2.0556669157   -1.4306146480
H       -1.3284083957   -1.2855231550   -2.8727348425
H       -1.9806746486    0.7239631333    0.0003050837
H       -1.3347114559    1.4675461534   -2.4151367983
C       -0.3377991209   -0.6748573817   -0.1344400581
H       -0.2144073040   -1.0788596325    0.8600062954
13   
From optimize.out: Frame 16 / 26, Energy=    -286.8462081473
C        1.4065246962    0.1526766398   -1.6053034265
C        0.4912478511   -1.0554655415   -1.3953884422
C       -0.5604505125   -0.6642720013   -2.4400635569
C       -1.1065790554    0.3476118758   -0.5039621111
C       -0.6760820891    0.7484044063   -1.9296508975
N        0.7558287017    1.2048244593   -1.9177017884
H        2.4775739684    0.1752008122   -1.4127946640
H        0.9186878763   -2.0563445059   -1.4108044633
H       -1.3038412873   -1.2926146728   -2.8941098343
H       -1.9363327962    0.7731375521    0.0518546841
H       -1.3487972300    1.4436208689   -2.4233683840
C       -0.3458752457   -0.6787784551   -0.1422564962
H       -0.2489695161   -1.1125536773    0.8391025676
13   
From optimize.out: Frame 17 / 26, Energy=    -286.8489012577
C        1.4026562139    0.1606774632   -1.6011134505
C        0.4933578169   -1.0554335339   -1.3881209919
C       -0.5368288725   -0.6689597155   -2.4555365746
C       -1.1056602705    0.3660469862   -0.4880473238
C       -0.6898261354    0.7377975781   -1.9321323963
N        0.7448957417    1.2105570665   -1.9082416503
H        2.4782356934    0.1821744823   -1.4357003082
H        0.9328492541   -2.0517349446   -1.3977870494
H       -1.2925262895   -1.3043586175   -2.8911333280
H       -1.9070017523    0.8223181761    0.0825420958
H       -1.3537107475    1.4328022593   -2.4405046031
C       -0.3660530877   -0.6882451666   -0.1490753648
H       -0.2774522034   -1.1581942732    0.8204041326
13   
From optimize.out: Frame 18 / 26, Energy=    -286.8504452116
C        1.3998434652    0.1727364399   -1.5967992377
C        0.4955371874   -1.0548382063   -1.3835432352
C       -0.5248356089   -0.6706283482   -2.4633552299
C       -1.1011633603    0.3698156433   -0.4880895554
C       -0.7012651241    0.7344561186   -1.9353756784
N        0.7372860462    1.2170538258   -1.9153408579
H        2.4779936958    0.1947850002   -1.4472171137
H        0.9488306530   -2.0450648308   -1.3808841393
H       -1.2898930179   -1.3152809455   -2.8756932830
H       -1.8619940184    0.8579369263    0.1097116026
H       -1.3592422338    1.4278931236   -2.4550304598
C       -0.3687792867   -0.7002605422   -0.1547153932
H       -0.3293830362   -1.2031564443    0.8018857685
13   
From optimize.out: Frame 19 / 26, Energy=    -286.8511747418
C        1.3995589570    0.1820109661   -1.5862756100
C        0.5006860271   -1.0536345660   -1.3783700580
C       -0.5113441414   -0.6753925582   -2.4684746016
C       -1.1053443267    0.3691190154   -0.4966600878
C       -0.7075638612    0.7338022438   -1.9359942198
N        0.7346624174    1.2244046546   -1.8988493733
H        2.4815892877    0.1954528899   -1.4665842446
H        0.9744638127   -2.0351223440   -1.3891397058
H       -1.3025842923   -1.3251001455   -2.8288857364
H       -1.8439489284    0.8868816878    0.1045054034
H       -1.3552427371    1.4318211614   -2.4635040469
C       -0.3927836994   -0.7206304276   -0.1674141427
H       -0.3492131542   -1.2281648173    0.7911996109
13   
From optimize.out: Frame 20 / 26, Energy=    -286.8512761882
C        1.3994302360    0.1885543266   -1.5922993045
C        0.5006782313   -1.0504567577   -1.3727569462
C       -0.5042491697   -0.6790029475   -2.4622719552
C       -1.1167562386    0.3665523350   -0.5030974031
C       -0.7104262157    0.7393249682   -1.9377041356
N        0.7325891850    1.2326314018   -1.8982339742
H        2.4820397143    0.1983567265   -1.4770045376
H        0.9798313402   -2.0297778603   -1.3747628837
H       -1.3032920013   -1.3385425190   -2.8015377226
H       -1.8290871641    0.9054194070    0.1114630496
H       -1.3508988095    1.4377251441   -2.4752041988
C       -0.3858725983   -0.7075467231   -0.1615896319
H       -0.3710511484   -1.2777897412    0.7605528314
13   
From optimize.out: Frame 21 / 26, Energy=    -286.8514348422
C        1.4051082285    0.1904116830   -1.5866405558
C        0.5070108212   -1.0495475818   -1.3826807668
C       -0.5049028080   -0.6774095836   -2.4692290247
C       -1.1151771879    0.3520410806   -0.5096176832
C       -0.7097767180    0.7386758904   -1.9393993577
N        0.7349729283    1.2327752148   -1.8981268005
H        2.4875545309    0.1998844438   -1.4687735869
H        0.9934145642   -2.0253687595   -1.3999726693
H       -1.3195558985   -1.3358701399   -2.7774445579
H       -1.8200865396    0.8959637332    0.1094421763
H       -1.3512244727    1.4381122255   -2.4748686703
C       -0.3865526530   -0.7275495655   -0.1701011638
H       -0.3978494341   -1.2466708806    0.7829658481
13   
From optimize.out: Frame 22 / 26, Energy=    -286.8515533734
C        1.3999560146    0.1897853193   -1.5807364016
C        0.5034951639   -1.0511209585   -1.3847563331
C       -0.5102104730   -0.6768606893   -2.4694659981
C       -1.1106391054    0.3560825339   -0.5120326072
C       -0.7042480927    0.7378170909   -1.9393436313
N        0.7373757681    1.2310770671   -1.8998758369
H        2.4810660590    0.2016395339   -1.4524002144
H        0.9874229976   -2.0277618701   -1.3997511078
H       -1.3260280404   -1.3301160868   -2.7694035769
H       -1.8287629352    0.8970434401    0.0945604486
H       -1.3498251760    1.4342195444   -2.4714914020
C       -0.3915977619   -0.7273182942   -0.1749863862
H       -0.3650690575   -1.2490388701    0.7752362343
13   
From optimize.out: Frame 23 / 26, Energy=    -286.8516095087
C        1.4034520050    0.1874653812   -1.5871010662
C        0.5054721445   -1.0505072379   -1.3839442548
C       -0.5075639016   -0.6767756209   -2.4679362416
C       -1.1163540247    0.3558000823   -0.5103392768
C       -0.7036491483    0.7387946004   -1.9397888425
N        0.7373459018    1.2310073535   -1.8958122013
H        2.4847263961    0.1993190791   -1.4600738160
H        0.9861177485   -2.0289203981   -1.3981142210
H       -1.3235552460   -1.3307730237   -2.7691964164
H       -1.8376714550    0.8944104118    0.0943779941
H       -1.3492254958    1.4373324818   -2.4699812433
C       -0.3881413328   -0.7205878332   -0.1710751794
H       -0.3680182305   -1.2511175158    0.7745379528
13   
From optimize.out: Frame 24 / 26, Energy=    -286.8516269519
C        1.4042891980    0.1889902744   -1.5862928026
C        0.5064916058   -1.0496585100   -1.3852902385
C       -0.5077558292   -0.6762329226   -2.4688857420
C       -1.1163445084    0.3540796873   -0.5119230665
C       -0.7026909174    0.7394557850   -1.9407739011
N        0.7379469027    1.2317124206   -1.8975338197
H        2.4853248265    0.2015849577   -1.4573306254
H        0.9876498023   -2.0278074880   -1.3985773144
H       -1.3288004881   -1.3308601835   -2.7582304545
H       -1.8350096968    0.8941103215    0.0946181713
H       -1.3480894504    1.4367461934   -2.4730138451
C       -0.3867854524   -0.7210367340   -0.1723908229
H       -0.3732906314   -1.2556360413    0.7711776489
13   
From optimize.out: Frame 25 / 26, Energy=    -286.8516345401
C        1.4053670494    0.1891932494   -1.5863058234
C        0.5079989018   -1.0494356593   -1.3866123247
C       -0.5084919846   -0.6757828094   -2.4693721670
C       -1.1162781174    0.3533896849   -0.5132248002
C       -0.7008615986    0.7397992705   -1.9416586394
N        0.7388493564    1.2316299791   -1.8980110298
H        2.4861326889    0.2029192746   -1.4555352370
H        0.9884729504   -2.0278516357   -1.3994309746
H       -1.3330243699   -1.3297034754   -2.7488443623
H       -1.8373862246    0.8921262136    0.0916144612
H       -1.3472075071    1.4371321995   -2.4724560276
C       -0.3860102533   -0.7213766076   -0.1738618517
H       -0.3746255303   -1.2565919237    0.7692519641
