13   
Frame   0 IRC: Energy =  -286.8625815208 ; +0.0000 kcal/mol
C        1.3165483078   -0.1088114222    0.0324810691
C        0.4480150241   -1.2268466465    0.4587209889
C       -0.8962136219   -1.0932364106    0.5003881265
C       -1.5345316723    0.1958923192    0.2711084259
C       -0.8126120847    1.2778829784   -0.0836735276
N        0.5783437721    1.2040270635   -0.3496592469
H        2.2363881049    0.0488452630    0.5995266632
H        0.9304809464   -2.1475349714    0.7778218605
H       -1.5154733997   -1.9295170571    0.8115451186
H       -2.5920635030    0.3095591578    0.4897950467
H       -1.2248209825    2.2821570916   -0.1074921216
C        1.1763251941    0.4170699307   -1.3306386024
H        1.8896139147    0.7705127035   -2.0699238004
13   
Frame   1 IRC: Energy =  -286.8622400005 ; +0.2143 kcal/mol
C        1.3110562536   -0.1179003497    0.0167257593
C        0.4398282288   -1.2427543532    0.4422061592
C       -0.8983730617   -1.0915977573    0.5391393058
C       -1.5356393883    0.1965661420    0.2893529543
C       -0.8136242004    1.2684919439   -0.0906119476
N        0.5864976251    1.1960372719   -0.3225375873
H        2.2331933464    0.0132057244    0.5887957840
H        0.9214669816   -2.1737658299    0.7329297025
H       -1.5140385686   -1.9133362726    0.8900838500
H       -2.5990619113    0.3110111016    0.4782989370
H       -1.2356892443    2.2661887851   -0.1855415602
C        1.1920064401    0.4495917776   -1.3331753834
H        1.9123774989    0.8382618161   -2.0456659736
13   
Frame   2 IRC: Energy =  -286.8610035834 ; +0.9902 kcal/mol
C        1.3092090718   -0.1359442369    0.0013345675
C        0.4327533957   -1.2576923375    0.4342926764
C       -0.8971622866   -1.0877797395    0.5777368049
C       -1.5341277861    0.1962049369    0.2926647181
C       -0.8058398782    1.2617127570   -0.0867430158
N        0.6031976580    1.2013436139   -0.2680803085
H        2.2454677555   -0.0421708400    0.5565965325
H        0.9112593059   -2.1933119979    0.7129149959
H       -1.5102006597   -1.8928077204    0.9735708871
H       -2.6069558388    0.3015653396    0.4190522678
H       -1.2327426410    2.2446732651   -0.2589628840
C        1.1909136199    0.4915887875   -1.3207706559
H        1.8942282836    0.9126181721   -2.0336065860
13   
Frame   3 IRC: Energy =  -286.8587626597 ; +2.3964 kcal/mol
C        1.3076521113   -0.1500261040   -0.0094164586
C        0.4252836502   -1.2723204458    0.4290413011
C       -0.8948162172   -1.0843118837    0.6130623557
C       -1.5307763716    0.1952506016    0.2952300529
C       -0.7941583156    1.2544828283   -0.0829331117
N        0.6233768587    1.2033935316   -0.2087465075
H        2.2539895054   -0.0914219880    0.5334056700
H        0.8999551898   -2.2138037119    0.6955174291
H       -1.5056308728   -1.8724521533    1.0465157436
H       -2.6091111222    0.2913654170    0.3595061658
H       -1.2174248838    2.2203875619   -0.3365627567
C        1.1872333788    0.5331051258   -1.3038515083
H        1.8544270891    0.9863512205   -2.0307683756
13   
Frame   4 IRC: Energy =  -286.8554607246 ; +4.4684 kcal/mol
C        1.3104239286   -0.1638788166   -0.0173049471
C        0.4191332027   -1.2903104304    0.4211795637
C       -0.8918383705   -1.0813437993    0.6410623706
C       -1.5230382237    0.1932357961    0.2925536813
C       -0.7793028579    1.2435037111   -0.0869061767
N        0.6446541154    1.2004123811   -0.1539963229
H        2.2561991974   -0.1336201104    0.5310610545
H        0.8795200898   -2.2384499959    0.6866053715
H       -1.5031605674   -1.8457050456    1.1131028291
H       -2.6032438381    0.2818631939    0.3128057870
H       -1.1975250940    2.1894602729   -0.4119924337
C        1.1957486967    0.5759652604   -1.2844574223
H        1.7924297211    1.0688675826   -2.0437133549
13   
Frame   5 IRC: Energy =  -286.8502265689 ; +7.7529 kcal/mol
C        1.3207950455   -0.1760722401   -0.0267913628
C        0.4125711984   -1.3133311500    0.4161403690
C       -0.8915499247   -1.0821759304    0.6645840090
C       -1.5096190189    0.1842250153    0.2865766027
C       -0.7619535991    1.2269319721   -0.1057087960
N        0.6647341898    1.1985993342   -0.1171834506
H        2.2589315238   -0.1537124916    0.5346057178
H        0.8371571630   -2.2759607338    0.6972638723
H       -1.5211450143   -1.8134263088    1.1665343359
H       -2.5878584402    0.2733825995    0.2906010222
H       -1.1997709300    2.1514969409   -0.4604580990
C        1.2464103311    0.6331477793   -1.2619277695
H        1.7312974757    1.1468952132   -2.0842364509
13   
Frame   6 IRC: Energy =  -286.8408340691 ; +13.6467 kcal/mol
C        1.3324976680   -0.1777783862   -0.0422035979
C        0.4043365777   -1.3454323940    0.4264971875
C       -0.8969242576   -1.0958041751    0.6891918808
C       -1.4918540133    0.1716770732    0.2855836131
C       -0.7505998184    1.2108803843   -0.1240537263
N        0.6765993985    1.2069594508   -0.1098242531
H        2.2712638269   -0.1447034934    0.5200432492
H        0.7834696501   -2.3328694368    0.7243378490
H       -1.5664032180   -1.7927388873    1.2063879775
H       -2.5686048408    0.2671189304    0.2807443341
H       -1.2191029125    2.1204703894   -0.4807258309
C        1.3257620619    0.7058802867   -1.2407651471
H        1.6995598774    1.2063402579   -2.1352135357
13   
Frame   7 IRC: Energy =  -286.8257404973 ; +23.1181 kcal/mol
C        1.3586548722   -0.1498647734   -0.0643692223
C        0.3866138356   -1.3961214629    0.4479494396
C       -0.9117729482   -1.1187951440    0.7129522090
C       -1.4766584159    0.1578785054    0.2864794381
C       -0.7445709883    1.2019323321   -0.1351551835
N        0.6840829924    1.2336687286   -0.1195684332
H        2.2974156357   -0.1306664134    0.5081142842
H        0.7382198230   -2.4070816437    0.7605280618
H       -1.6194494789   -1.7835774905    1.2400240183
H       -2.5526601974    0.2621553346    0.2733646088
H       -1.2381037051    2.0992110200   -0.4914290030
C        1.3841276458    0.7808868034   -1.2392088083
H        1.6941009293    1.2503742038   -2.1796814095
13   
Frame   8 IRC: Energy =  -286.8036977958 ; +36.9501 kcal/mol
C        1.4075482185   -0.0829014259   -0.0972975749
C        0.3526449634   -1.4664168250    0.4781296942
C       -0.9328173369   -1.1415465519    0.7330509240
C       -1.4660177349    0.1461536255    0.2858807250
C       -0.7429253243    1.1967292874   -0.1413933093
N        0.6869858886    1.2719709311   -0.1349641767
H        2.3245956266   -0.1293225524    0.5048095317
H        0.7094664605   -2.4813487096    0.7967504279
H       -1.6627785942   -1.7800888452    1.2656158480
H       -2.5427206686    0.2577758427    0.2680441964
H       -1.2513181258    2.0861005114   -0.4979224908
C        1.4178621231    0.8450293996   -1.2486700666
H        1.6994745041    1.2778653122   -2.2120337288
13   
Frame   9 IRC: Energy =  -286.7788426133 ; +52.5470 kcal/mol
C        1.4711246236    0.0062039732   -0.1352133640
C        0.3119869745   -1.5435446277    0.5135757800
C       -0.9524346352   -1.1602339170    0.7491214169
C       -1.4583271041    0.1362724432    0.2836133696
C       -0.7427343866    1.1918425352   -0.1466996230
N        0.6857751162    1.3143233812   -0.1484750025
H        2.3401007704   -0.1434848166    0.5024874213
H        0.6911405505   -2.5457309818    0.8286624553
H       -1.6949179471   -1.7769546186    1.2848788434
H       -2.5365751499    0.2538472173    0.2643718790
H       -1.2604345945    2.0762571760   -0.5025298263
C        1.4390884003    0.8957138339   -1.2590133141
H        1.7062073819    1.2954884017   -2.2347800357
13   
Frame  10 IRC: Energy =  -286.7572688192 ; +66.0848 kcal/mol
C        1.5438089096    0.1094653045   -0.1757539779
C        0.2692807269   -1.6212240496    0.5530678804
C       -0.9682970094   -1.1721579917    0.7605207107
C       -1.4537858061    0.1286421416    0.2800724376
C       -0.7410298802    1.1848885380   -0.1529089742
N        0.6796094179    1.3606590296   -0.1530660663
H        2.3388237353   -0.1724193396    0.4974700137
H        0.6815529236   -2.5981393405    0.8559499010
H       -1.7163136106   -1.7732731787    1.2980524765
H       -2.5334551987    0.2502968376    0.2625331259
H       -1.2658588243    2.0670570311   -0.5060632285
C        1.4535942749    0.9293776443   -1.2691362782
H        1.7120703411    1.3068273735   -2.2507380206
13   
Frame  11 IRC: Energy =  -286.7466903268 ; +72.7229 kcal/mol
C        1.6148017596    0.2154301848   -0.2081132412
C        0.2299000450   -1.6924150300    0.5951805046
C       -0.9788379860   -1.1792088746    0.7689407547
C       -1.4502969770    0.1206347399    0.2775944700
C       -0.7352567142    1.1753416256   -0.1594045670
N        0.6705259780    1.4047976347   -0.1450420572
H        2.3201241750   -0.2103864563    0.4848047795
H        0.6727450710   -2.6436205535    0.8848839765
H       -1.7333320162   -1.7690841589    1.3063513002
H       -2.5291867949    0.2464885485    0.2613629282
H       -1.2688691273    2.0564247159   -0.5105838613
C        1.4719319879    0.9549600909   -1.2863980299
H        1.7157505990    1.3206375331   -2.2695769569
13   
Frame  12 IRC: Energy =  -286.7448951529 ; +73.8494 kcal/mol (Transition State)
C        1.6706450036    0.3041634507   -0.2297056743
C        0.2025769220   -1.7530482272    0.6432250553
C       -0.9859755154   -1.1902308359    0.7816673843
C       -1.4391259380    0.1115863419    0.2754781729
C       -0.7237938575    1.1668637132   -0.1655203058
N        0.6713306272    1.4355190775   -0.1393868258
H        2.2893071158   -0.2477781635    0.4511112874
H        0.6500422312   -2.6958354838    0.9330683651
H       -1.7571436229   -1.7652902451    1.3119760766
H       -2.5188733892    0.2399449389    0.2570944548
H       -1.2706738727    2.0397567713   -0.5187727991
C        1.4950011847    0.9979214699   -1.3047062402
H        1.7166831110    1.3564271920   -2.2955289512
13   
Frame  13 IRC: Energy =  -286.7449291796 ; +73.8280 kcal/mol
C        1.6985013811    0.3485499759   -0.2621082188
C        0.1892244814   -1.7935921397    0.7048613720
C       -0.9890379389   -1.2006945719    0.7981731154
C       -1.4232639254    0.1004807169    0.2742420125
C       -0.7104227350    1.1571360179   -0.1717914706
N        0.6777575791    1.4489822257   -0.1344648336
H        2.2658548267   -0.2857063152    0.3908620502
H        0.6125413561   -2.7423072889    1.0081372917
H       -1.7823450992   -1.7632297976    1.3096172153
H       -2.5028598730    0.2307742900    0.2475270198
H       -1.2674775404    2.0210244464   -0.5325251182
C        1.5145756766    1.0531553014   -1.3216608654
H        1.7169518109    1.4254271389   -2.3108695704
13   
Frame  14 IRC: Energy =  -286.7452552378 ; +73.6234 kcal/mol
C        1.7116336527    0.3594090002   -0.3023621511
C        0.1841408874   -1.8081604743    0.7725664547
C       -0.9932137034   -1.2070451176    0.8126335371
C       -1.4140294044    0.0912078284    0.2726390960
C       -0.6990345236    1.1467326537   -0.1760005262
N        0.6856940990    1.4437715903   -0.1256693309
H        2.2519760046   -0.3324658733    0.3148056941
H        0.5871386744   -2.7600878947    1.0928620767
H       -1.8057760428   -1.7682543320    1.2950228146
H       -2.4929658545    0.2231499129    0.2348557483
H       -1.2579211818    2.0061650266   -0.5448391120
C        1.5248719305    1.1002749979   -1.3342670677
H        1.7174854618    1.5053026818   -2.3122472335
13   
Frame  15 IRC: Energy =  -286.7456740212 ; +73.3606 kcal/mol
C        1.7167462341    0.3499096609   -0.3526383869
C        0.1747235976   -1.8125051919    0.8348167683
C       -1.0038700995   -1.2146826406    0.8264118764
C       -1.4108567487    0.0788648711    0.2652544537
C       -0.6891038755    1.1328250802   -0.1768547766
N        0.6960043867    1.4271910935   -0.1208056335
H        2.2541389034   -0.3743775944    0.2263187347
H        0.5666239832   -2.7589744025    1.1822571125
H       -1.8293410884   -1.7718172666    1.2907577754
H       -2.4887102550    0.2134384537    0.2122544628
H       -1.2443061458    1.9951630536   -0.5444318709
C        1.5324790852    1.1411709035   -1.3442165698
H        1.7254720227    1.5937939798   -2.2991239460
13   
Frame  16 IRC: Energy =  -286.7460924931 ; +73.0980 kcal/mol
C        1.7218220505    0.3401217014   -0.4030001743
C        0.1649885159   -1.8168171443    0.8968978611
C       -1.0146047943   -1.2224570821    0.8402178399
C       -1.4077513203    0.0664163739    0.2577411199
C       -0.6791985024    1.1188218675   -0.1777029612
N        0.7063214822    1.4105367814   -0.1160486253
H        2.2566076766   -0.4160536299    0.1376276748
H        0.5460430342   -2.7577451328    1.2717135213
H       -1.8529356061   -1.7752210378    1.2868910119
H       -2.4844426772    0.2036491503    0.1894143147
H       -1.2306071779    1.9841569552   -0.5437581518
C        1.5400873991    1.1820552635   -1.3540625778
H        1.7336699198    1.6825359337   -2.2859308532
13   
Frame  17 IRC: Energy =  -286.7464133877 ; +72.8967 kcal/mol
C        1.7252149721    0.3316344002   -0.4551718993
C        0.1540668524   -1.8187191328    0.9583126955
C       -1.0238074327   -1.2299184372    0.8530924763
C       -1.4033932554    0.0537209846    0.2505096548
C       -0.6685259800    1.1046244690   -0.1784826487
N        0.7175766335    1.3916123953   -0.1121773998
H        2.2556452699   -0.4540556932    0.0429970543
H        0.5229283028   -2.7531604543    1.3597223918
H       -1.8736622873   -1.7797142812    1.2807159649
H       -2.4786060668    0.1934405470    0.1678011255
H       -1.2161196214    1.9733600466   -0.5420391318
C        1.5471773500    1.2206950658   -1.3604047794
H        1.7415052628    1.7664800902   -2.2648755039
13   
Frame  18 IRC: Energy =  -286.7466991150 ; +72.7174 kcal/mol
C        1.7280013705    0.3236158625   -0.5079959346
C        0.1427175391   -1.8197525587    1.0194874071
C       -1.0324579108   -1.2372669546    0.8656314579
C       -1.3985837343    0.0409366142    0.2433797765
C       -0.6575769735    1.0903570849   -0.1792376496
N        0.7291698647    1.3718698637   -0.1086254147
H        2.2534462497   -0.4907336393   -0.0537742121
H        0.4989003842   -2.7473664706    1.4472095625
H       -1.8933553864   -1.7846001756    1.2737090016
H       -2.4722039695    0.1830808260    0.1466301381
H       -1.2013478538    1.9626385310   -0.5399433805
C        1.5540804805    1.2585259187   -1.3654841925
H        1.7492099395    1.8486950978   -2.2409865598
13   
Frame  19 IRC: Energy =  -286.7469848422 ; +72.5381 kcal/mol
C        1.7307877688    0.3155973248   -0.5608199698
C        0.1313682258   -1.8207859846    1.0806621188
C       -1.0411083888   -1.2446154720    0.8781704396
C       -1.3937742132    0.0281522438    0.2362498983
C       -0.6466279670    1.0760897008   -0.1799926505
N        0.7407630958    1.3521273321   -0.1050734295
H        2.2512472295   -0.5274115855   -0.1505454785
H        0.4748724656   -2.7415724868    1.5346967332
H       -1.9130484856   -1.7894860699    1.2667020383
H       -2.4658018722    0.1727211050    0.1254591507
H       -1.1865760862    1.9519170153   -0.5378476292
C        1.5609836110    1.2963567717   -1.3705636056
H        1.7569146163    1.9309101053   -2.2170976158
13   
Frame  20 IRC: Energy =  -286.7472396336 ; +72.3782 kcal/mol
C        1.7198348378    0.2976005221   -0.6158332722
C        0.1278480045   -1.8072478096    1.1326323402
C       -1.0444000648   -1.2472308708    0.8888229849
C       -1.3912481588    0.0186859098    0.2310618968
C       -0.6393169883    1.0650312310   -0.1804902287
N        0.7503444549    1.3266715866   -0.1030858034
H        2.2235560600   -0.5765553412   -0.2551532178
H        0.4646820101   -2.7174177272    1.6124850973
H       -1.9214704416   -1.7959604226    1.2604239275
H       -2.4620732536    0.1634487389    0.1101801425
H       -1.1739884290    1.9457506918   -0.5341138940
C        1.5692322957    1.3248070270   -1.3690109678
H        1.7769996731    2.0024164642   -2.1779190051
13   
Frame  21 IRC: Energy =  -286.7474910674 ; +72.2204 kcal/mol
C        1.7059746671    0.2774427640   -0.6712766517
C        0.1260262024   -1.7905077628    1.1825695520
C       -1.0465519072   -1.2488074538    0.8990411346
C       -1.3892543920    0.0099628659    0.2262965682
C       -0.6328031295    1.0546697627   -0.1809397313
N        0.7594821813    1.2998831821   -0.1013771551
H        2.1905105432   -0.6283175875   -0.3614173463
H        0.4575161475   -2.6892322943    1.6881289204
H       -1.9274539928   -1.8028311099    1.2542084581
H       -2.4589620634    0.1544590381    0.0962002267
H       -1.1618414195    1.9405832140   -0.5300696497
C        1.5777216709    1.3511666655   -1.3659760289
H        1.7996354921    2.0715287160   -2.1353882970
13   
Frame  22 IRC: Energy =  -286.7480660599 ; +71.8596 kcal/mol
C        1.6891479972    0.2499978481   -0.7237570268
C        0.1302226037   -1.7583455987    1.2216803013
C       -1.0469343785   -1.2454999485    0.9052034956
C       -1.3928397938    0.0062228646    0.2231698018
C       -0.6299037611    1.0468650486   -0.1819959948
N        0.7663293879    1.2590445935   -0.0946162643
H        2.1560818502   -0.6807752380   -0.4691862939
H        0.4633419756   -2.6420087914    1.7521213596
H       -1.9254697300   -1.8162816811    1.2386647068
H       -2.4617850276    0.1511501490    0.0889146060
H       -1.1479381535    1.9400210233   -0.5294095143
C        1.5819413554    1.3645548047   -1.3533309214
H        1.8178056744    2.1250549258   -2.0774582557
13   
Frame  23 IRC: Energy =  -286.7487133333 ; +71.4534 kcal/mol
C        1.6666043671    0.2183752283   -0.7702231731
C        0.1405205582   -1.7187543291    1.2495682068
C       -1.0445251522   -1.2380690913    0.9094434128
C       -1.4000302862    0.0071744114    0.2233608933
C       -0.6303705028    1.0420502901   -0.1833829936
N        0.7690838041    1.2158909691   -0.0864190544
H        2.1114379670   -0.7361150350   -0.5676790633
H        0.4822268430   -2.5872802461    1.7996239167
H       -1.9157518195   -1.8309056611    1.2218577003
H       -2.4688434919    0.1517255370    0.0888940662
H       -1.1348186300    1.9419916202   -0.5332685841
C        1.5850288780    1.3692678908   -1.3362267153
H        1.8394374653    2.1646484157   -2.0155486122
13   
Frame  24 IRC: Energy =  -286.7494719566 ; +70.9774 kcal/mol
C        1.6352536629    0.1803167849   -0.8074242983
C        0.1602180586   -1.6677183966    1.2601671312
C       -1.0378152683   -1.2242861406    0.9107217725
C       -1.4127744819    0.0153533675    0.2286632010
C       -0.6360227942    1.0418416088   -0.1852794954
N        0.7655332073    1.1691709929   -0.0760091708
H        2.0510574102   -0.7958948278   -0.6518817232
H        0.5212293814   -2.5209900560    1.8217235313
H       -1.8941200939   -1.8473372973    1.2031046278
H       -2.4824268157    0.1582847195    0.1000655067
H       -1.1229064752    1.9478640192   -0.5440895660
C        1.5863722860    1.3606169107   -1.3122531927
H        1.8664019228    2.1827783147   -1.9475083241
13   
Frame  25 IRC: Energy =  -286.7501671200 ; +70.5412 kcal/mol
C        1.6097504494    0.1475343909   -0.8461314420
C        0.1754592535   -1.6189818725    1.2761690554
C       -1.0333842284   -1.2113479923    0.9129204020
C       -1.4263265487    0.0243478166    0.2370277160
C       -0.6397377931    1.0390401472   -0.1875987446
N        0.7627691166    1.1194047171   -0.0636046978
H        1.9970943480   -0.8487237123   -0.7399956003
H        0.5556870289   -2.4595439237    1.8446381596
H       -1.8740595325   -1.8664956976    1.1785708025
H       -2.4965653391    0.1670234759    0.1142109656
H       -1.1067664431    1.9491095057   -0.5623643704
C        1.5871217627    1.3552077430   -1.2863057031
H        1.8889579257    2.2034254020   -1.8775365428
13   
Frame  26 IRC: Energy =  -286.7507097396 ; +70.2007 kcal/mol
C        1.6016582412    0.1322701126   -0.8690320175
C        0.1825552380   -1.5828058163    1.2904512825
C       -1.0331593024   -1.1980319445    0.9187135993
C       -1.4416455809    0.0388470012    0.2565351088
C       -0.6409434425    1.0323058435   -0.1922084412
N        0.7595528213    1.0773509032   -0.0437220937
H        1.9557727989   -0.8808161487   -0.8004662721
H        0.5867789254   -2.4244547274    1.8389425816
H       -1.8578308641   -1.8850408361    1.1508312153
H       -2.5121450142    0.1834133114    0.1409410053
H       -1.0865855052    1.9348089300   -0.6097918903
C        1.5868251436    1.3555647022   -1.2573887973
H        1.8991665408    2.2165886688   -1.8238052808
13   
Frame  27 IRC: Energy =  -286.7509098683 ; +70.0751 kcal/mol
C        1.6148949458    0.1453523747   -0.8653715982
C        0.1778689086   -1.5844679029    1.3089479915
C       -1.0329454095   -1.1983333284    0.9254017826
C       -1.4361548166    0.0371933324    0.2567814419
C       -0.6313608641    1.0273458886   -0.1903000268
N        0.7688133857    1.0769653373   -0.0246791162
H        1.9156185398   -0.8867212377   -0.8398037336
H        0.5843256393   -2.4354017206    1.8406849593
H       -1.8609574360   -1.8827083751    1.1550248290
H       -2.5054704514    0.1794319896    0.1287308446
H       -1.0748377863    1.9230318826   -0.6255782455
C        1.5938033784    1.3702900506   -1.2441114669
H        1.8864019663    2.2280217088   -1.8257276616
