13   
From optimize.out: Frame 1 / 2, Energy=    -286.8505297448
C        0.6574972011    0.0208007156    0.2806613023
C        1.0071821366   -1.2174319305   -0.5244428927
C        0.3032007222   -2.3236513888   -0.5672611172
C       -1.3309762843    1.1511831546    0.5068860752
C       -0.4003905167    1.8307396575   -0.4063839677
N        0.7265163540    1.2237956417   -0.5684761525
H        1.4340666131    0.1490763331    1.0553231697
H        1.9346521411   -1.1231490394   -1.1013215857
H        0.3765221234   -3.2886226148   -1.0528583827
H       -2.3239256500    1.4962469481    0.7724061532
H       -0.6090046255    2.7687817943   -0.9196545436
C       -0.7038731787    0.0365166868    0.9236013208
H       -1.0714670365   -0.7242859583    1.6015206208
