13   
From optimize.out: Frame 1 / 28, Energy=    -286.6338440059
C        1.3899849595    0.0714119942   -0.3340666498
C        0.5748900660   -1.1117353711   -0.9154816949
C       -0.8520277807   -0.6833831597   -1.5204661372
C       -1.3404796951   -0.0892649370   -0.3534441134
C       -0.7169610130    0.8612616313   -1.2083623955
N        0.7280149592    1.1088096931   -1.2602787404
H        2.4307614633    0.1902166014   -0.4899758825
H        0.7583917361   -2.2064494394   -0.9220209423
H       -0.8725166243   -0.3705365936   -2.5707677284
H       -2.3391858171    0.0463274168    0.0471333768
H       -1.2166938949    1.5766503218   -1.9326427920
C        0.1812228118   -0.2650266838    0.3076741658
H       -0.0845922813   -0.7683024603    1.1754055731
13   
From optimize.out: Frame 2 / 28, Energy=    -286.6764359092
C        1.3568843107    0.0798287154   -0.3499737755
C        0.5612538091   -1.1194712682   -0.9182238134
C       -0.8380677873   -0.6878451568   -1.5383692624
C       -1.3239665888   -0.0728497482   -0.3482861609
C       -0.7033493534    0.8879652814   -1.2288034313
N        0.7210040575    1.1397555660   -1.2741794371
H        2.4072540620    0.2024892964   -0.4850375283
H        0.7630998934   -2.2029234161   -0.9081767591
H       -0.8759218561   -0.4003756132   -2.5936587623
H       -2.3193777162    0.0638611328    0.0625987098
H       -1.2081531569    1.5876595666   -1.9420542778
C        0.1648724179   -0.2957549297    0.3304683574
H       -0.0647232025   -0.8223604128    1.2164021800
13   
From optimize.out: Frame 3 / 28, Energy=    -286.7110581098
C        1.3206310684    0.0886946330   -0.3707725613
C        0.5471177760   -1.1245242706   -0.9238168691
C       -0.8235122952   -0.6946305153   -1.5541590964
C       -1.2988440824   -0.0581483806   -0.3454658820
C       -0.6851364051    0.9125172235   -1.2451771272
N        0.7119330760    1.1614265546   -1.2783973005
H        2.3800772860    0.2106518796   -0.4739436161
H        0.7698967613   -2.1966956677   -0.8951628425
H       -0.8831602826   -0.4315883782   -2.6116396393
H       -2.2900980714    0.0808332078    0.0757720447
H       -1.2023842057    1.5963535336   -1.9443602427
C        0.1435130346   -0.3219545750    0.3455848871
H       -0.0492247705   -0.8629562310    1.2442442847
13   
From optimize.out: Frame 4 / 28, Energy=    -286.7381895624
C        1.2877191916    0.0976292553   -0.3911139406
C        0.5364782118   -1.1297200185   -0.9291229059
C       -0.8138527144   -0.7019877055   -1.5673742342
C       -1.2742421241   -0.0419213197   -0.3453649143
C       -0.6682313473    0.9373569563   -1.2609817158
N        0.7041513503    1.1791397391   -1.2773520168
H        2.3548402481    0.2154764346   -0.4534786634
H        0.7817432401   -2.1920238560   -0.8827600423
H       -0.8981848618   -0.4644608331   -2.6269474240
H       -2.2615611767    0.1002348121    0.0850397453
H       -1.2026338195    1.6075296657   -1.9479861386
C        0.1246179178   -0.3476375995    0.3561408907
H       -0.0300352264   -0.8996365170    1.2640073990
13   
From optimize.out: Frame 5 / 28, Energy=    -286.7589836152
C        1.2596448957    0.1064374909   -0.4104579758
C        0.5290259242   -1.1350568717   -0.9341644500
C       -0.8088912669   -0.7105918007   -1.5779303277
C       -1.2530009785   -0.0242873716   -0.3480780664
C       -0.6533905085    0.9625646659   -1.2753448217
N        0.6996369558    1.1959758027   -1.2730620615
H        2.3325095124    0.2156516545   -0.4237086833
H        0.7983782631   -2.1876913905   -0.8727828616
H       -0.9210599573   -0.5011153648   -2.6392746758
H       -2.2372081000    0.1213423111    0.0894867835
H       -1.2070462793    1.6204753369   -1.9507194401
C        0.1092917123   -0.3724551312    0.3619616170
H       -0.0070812835   -0.9312703179    1.2767810028
13   
From optimize.out: Frame 6 / 28, Energy=    -286.7746303565
C        1.2367736723    0.1148209600   -0.4281375905
C        0.5240680326   -1.1399120581   -0.9390921912
C       -0.8073783518   -0.7207190595   -1.5851619116
C       -1.2357290830   -0.0061020259   -0.3533004038
C       -0.6406819107    0.9880082938   -1.2875999864
N        0.6982732400    1.2127621533   -1.2670304752
H        2.3125769657    0.2096932136   -0.3862171769
H        0.8198715688   -2.1826782285   -0.8680693365
H       -0.9507472124   -0.5416672593   -2.6473816574
H       -2.2178997495    0.1426310766    0.0890279395
H       -1.2136064280    1.6347541460   -1.9521795059
C        0.0973586896   -0.3955730528    0.3634437286
H        0.0179294559   -0.9560391456    1.2844046067
13   
From optimize.out: Frame 7 / 28, Energy=    -286.7863103670
C        1.2185240263    0.1223837285   -0.4439068525
C        0.5207106232   -1.1441956043   -0.9437621819
C       -0.8079349699   -0.7326103258   -1.5889932216
C       -1.2219804811    0.0111141966   -0.3606649371
C       -0.6293871285    1.0137099509   -1.2968197782
N        0.6989809234    1.2291824375   -1.2604780340
H        2.2937563994    0.1975980041   -0.3443683190
H        0.8461757862   -2.1765467419   -0.8708003045
H       -0.9854766749   -0.5854599303   -2.6504967101
H       -2.2032754204    0.1620852378    0.0839569759
H       -1.2196132636    1.6508656069   -1.9518676791
C        0.0878825138   -0.4162286345    0.3614580376
H        0.0424465556   -0.9719189118    1.2894490436
13   
From optimize.out: Frame 8 / 28, Energy=    -286.7951204704
C        1.2039540114    0.1284338579   -0.4578429052
C        0.5180587043   -1.1486078365   -0.9477708860
C       -0.8095929824   -0.7467285634   -1.5899957005
C       -1.2109471158    0.0260165399   -0.3700011454
C       -0.6187573180    1.0402642512   -1.3020647376
N        0.7005870287    1.2443988462   -1.2541107234
H        2.2750339873    0.1815285196   -0.3023814102
H        0.8764291729   -2.1696064286   -0.8815759158
H       -1.0227910750   -0.6317813827   -2.6487297595
H       -2.1925194082    0.1782995525    0.0744577973
H       -1.2230053888    1.6701231281   -1.9490964953
C        0.0799977652   -0.4343449716    0.3573087612
H        0.0643615080   -0.9780164990    1.2945091598
13   
From optimize.out: Frame 9 / 28, Energy=    -286.8020878170
C        1.1918082843    0.1324238698   -0.4704110542
C        0.5153276093   -1.1542047527   -0.9509499595
C       -0.8117543355   -0.7642000928   -1.5889660553
C       -1.2014850995    0.0380841940   -0.3813810584
C       -0.6082402825    1.0689981246   -1.3024610563
N        0.7022004237    1.2578724946   -1.2482730543
H        2.2559511742    0.1648363079   -0.2640753051
H        0.9086353434   -2.1625898129   -0.8986788436
H       -1.0597128926   -0.6807438651   -2.6430209316
H       -2.1844368662    0.1909478874    0.0605595973
H       -1.2230714645    1.6943092609   -1.9426480051
C        0.0729710470   -0.4503995016    0.3521327925
H        0.0826159487   -0.9753551004    1.3008789728
13   
From optimize.out: Frame 10 / 28, Energy=    -286.8081450679
C        1.1807834909    0.1347086307   -0.4822099766
C        0.5121888744   -1.1615778907   -0.9537021272
C       -0.8142136260   -0.7867247907   -1.5864699216
C       -1.1922953319    0.0479122542   -0.3951387899
C       -0.5976544396    1.1016040195   -1.2976785479
N        0.7032110501    1.2701928065   -1.2429104140
H        2.2364515432    0.1496009541   -0.2314589584
H        0.9404020080   -2.1561171426   -0.9181718158
H       -1.0938475122   -0.7337138960   -2.6346162890
H       -2.1776237050    0.2007389976    0.0422319211
H       -1.2205260603    1.7252366923   -1.9312157807
C        0.0662858420   -0.4648870092    0.3463612607
H        0.0976467559   -0.9669946119    1.3076854787
13   
From optimize.out: Frame 11 / 28, Energy=    -286.8139213023
C        1.1702897384    0.1362973259   -0.4934113739
C        0.5087417306   -1.1703728066   -0.9568063296
C       -0.8171636919   -0.8152394656   -1.5827746408
C       -1.1826337544    0.0566333023   -0.4115428011
C       -0.5871952815    1.1384876332   -1.2884937900
N        0.7037753846    1.2828042754   -1.2370897745
H        2.2168227289    0.1358946578   -0.2042405260
H        0.9701268457   -2.1503090214   -0.9365336813
H       -1.1249166169   -0.7923945162   -2.6243197318
H       -2.1711319614    0.2086968910    0.0198031245
H       -1.2164188843    1.7635036078   -1.9145425840
C        0.0598155756   -0.4777048660    0.3398035097
H        0.1106970761   -0.9563180037    1.3128546381
13   
From optimize.out: Frame 12 / 28, Energy=    -286.8195054972
C        1.1609471860    0.1374921270   -0.5034106805
C        0.5050762203   -1.1797990424   -0.9606526110
C       -0.8209636392   -0.8486213278   -1.5781522909
C       -1.1730093307    0.0648228051   -0.4303889755
C       -0.5774942605    1.1779015248   -1.2761760015
N        0.7052929850    1.2961526963   -1.2298010349
H        2.1981457155    0.1229722509   -0.1810864356
H        0.9977912275   -2.1446748298   -0.9540199249
H       -1.1543597003   -0.8570400541   -2.6123472802
H       -2.1652786234    0.2145530153   -0.0057365714
H       -1.2109936877    1.8080019279   -1.8935417681
C        0.0537216126   -0.4879514281    0.3323662471
H        0.1219331843   -0.9438306512    1.3156533666
13   
From optimize.out: Frame 13 / 28, Energy=    -286.8246806829
C        1.1538448409    0.1376269460   -0.5115532930
C        0.5012256690   -1.1893875190   -0.9650283942
C       -0.8257962798   -0.8843717598   -1.5732530614
C       -1.1648108163    0.0722572893   -0.4512276495
C       -0.5693309934    1.2171549939   -1.2613690041
N        0.7095425453    1.3090649019   -1.2210291871
H        2.1820371342    0.1101452389   -0.1614666761
H        1.0243035795   -2.1384976583   -0.9732019788
H       -1.1834808245   -0.9264464642   -2.5989096841
H       -2.1613972264    0.2160441768   -0.0331051311
H       -1.2034289099    1.8574250335   -1.8686360348
C        0.0482459066   -0.4943075708    0.3242558866
H        0.1298542646   -0.9267285944    1.3172302470
13   
From optimize.out: Frame 14 / 28, Energy=    -286.8292075862
C        1.1488486660    0.1361853342   -0.5179998292
C        0.4973869120   -1.1994117167   -0.9693578582
C       -0.8311844267   -0.9199890560   -1.5686618505
C       -1.1589205277    0.0784718720   -0.4734400465
C       -0.5624552939    1.2537048975   -1.2439816150
N        0.7157192518    1.3199513773   -1.2115740094
H        2.1693523837    0.0982862753   -0.1468407847
H        1.0499560808   -2.1318933628   -0.9955901317
H       -1.2117211015   -0.9986685987   -2.5842657704
H       -2.1602180605    0.2114719458   -0.0612361553
H       -1.1917362322    1.9107503992   -1.8391337665
C        0.0436008709   -0.4964204678    0.3157146244
H        0.1321803667   -0.9024598857    1.3190732323
13   
From optimize.out: Frame 15 / 28, Energy=    -286.8329166414
C        1.1453976238    0.1334957255   -0.5227668915
C        0.4939475356   -1.2099335270   -0.9731016270
C       -0.8359704944   -0.9536004828   -1.5642539891
C       -1.1555750463    0.0833998701   -0.4964743029
C       -0.5568986314    1.2863668180   -1.2244977748
N        0.7223645101    1.3286773264   -1.2023224214
H        2.1607648640    0.0865912426   -0.1391403784
H        1.0742511990   -2.1252046503   -1.0207860558
H       -1.2368787069   -1.0722585333   -2.5682418468
H       -2.1615799002    0.2009813134   -0.0893872108
H       -1.1760645437    1.9669380868   -1.8044996819
C        0.0399224930   -0.4946110391    0.3067304238
H        0.1271279870   -0.8708631363    1.3214477959
13   
From optimize.out: Frame 16 / 28, Energy=    -286.8356786418
C        1.1426318690    0.1300676389   -0.5259373194
C        0.4908919559   -1.2212246938   -0.9758393196
C       -0.8390372862   -0.9839710356   -1.5605106292
C       -1.1546037367    0.0867686290   -0.5199329679
C       -0.5524419629    1.3143785689   -1.2034728900
N        0.7282803994    1.3350996182   -1.1941647116
H        2.1565581592    0.0751165472   -0.1402833553
H        1.0963681166   -2.1191092862   -1.0469205204
H       -1.2567327113   -1.1454888875   -2.5515439490
H       -2.1647440192    0.1862958495   -0.1170190632
H       -1.1574726144    2.0243668497   -1.7636131653
C        0.0371942391   -0.4895366709    0.2975563524
H        0.1139164811   -0.8327841135    1.3243875778
13   
From optimize.out: Frame 17 / 28, Energy=    -286.8373944974
C        1.1402923252    0.1265726756   -0.5269108668
C        0.4881716656   -1.2332791077   -0.9768495714
C       -0.8392699946   -1.0095321971   -1.5578886214
C       -1.1560190148    0.0886107599   -0.5432873249
C       -0.5495505370    1.3372776420   -1.1822409180
N        0.7330478630    1.3395210752   -1.1877841612
H        2.1575115082    0.0625528483   -0.1523777277
H        1.1159818943   -2.1139800312   -1.0714146531
H       -1.2691719276   -1.2160063829   -2.5350031572
H       -2.1691709191    0.1699276803   -0.1431711918
H       -1.1385511375    2.0806114872   -1.7165866584
C        0.0355082582   -0.4817912938    0.2887372213
H        0.0920289056   -0.7905061422    1.3274836698
13   
From optimize.out: Frame 18 / 28, Energy=    -286.8380145638
C        1.1384879099    0.1248248511   -0.5250944827
C        0.4857654649   -1.2431022311   -0.9755721625
C       -0.8366098669   -1.0232085988   -1.5579074391
C       -1.1589715897    0.0884365581   -0.5597454819
C       -0.5478659836    1.3486197865   -1.1673876344
N        0.7348689849    1.3405698765   -1.1851186741
H        2.1632624325    0.0548771999   -0.1737515214
H        1.1280158275   -2.1118237604   -1.0844441606
H       -1.2711225230   -1.2629112461   -2.5249674932
H       -2.1729561256    0.1591214369   -0.1597837150
H       -1.1251977332    2.1185327621   -1.6769696230
C        0.0354096922   -0.4745233474    0.2834384467
H        0.0677223996   -0.7594342736    1.3300099807
13   
From optimize.out: Frame 19 / 28, Energy=    -286.8381686588
C        1.1389839184    0.1257429605   -0.5220787024
C        0.4842346077   -1.2455526519   -0.9734341524
C       -0.8336447533   -1.0225554967   -1.5584092708
C       -1.1610690597    0.0882801416   -0.5633468448
C       -0.5490507623    1.3493175641   -1.1657184610
N        0.7348906473    1.3409726853   -1.1849479582
H        2.1694143436    0.0507048387   -0.1891994271
H        1.1292126052   -2.1122374937   -1.0816242658
H       -1.2660916843   -1.2707199270   -2.5240192388
H       -2.1742925590    0.1564974774   -0.1614362616
H       -1.1248912629    2.1263477304   -1.6666584646
C        0.0369497205   -0.4711057783    0.2831971334
H        0.0561631284   -0.7557130368    1.3303819534
13   
From optimize.out: Frame 20 / 28, Energy=    -286.8382541295
C        1.1383663267    0.1288416068   -0.5186675281
C        0.4811537358   -1.2478044294   -0.9711886680
C       -0.8321362608   -1.0207494862   -1.5605392924
C       -1.1613986718    0.0872168115   -0.5645308162
C       -0.5482090796    1.3461405238   -1.1658143609
N        0.7327475161    1.3392240034   -1.1868324285
H        2.1749194089    0.0559186744   -0.2052297373
H        1.1267849533   -2.1146146519   -1.0720529474
H       -1.2603736407   -1.2694176630   -2.5277587043
H       -2.1731264631    0.1568209953   -0.1594329921
H       -1.1237120847    2.1274850665   -1.6598924162
C        0.0391936313   -0.4687486789    0.2843850311
H        0.0465995181   -0.7603337588    1.3302608996
13   
From optimize.out: Frame 21 / 28, Energy=    -286.8382822900
C        1.1401748039    0.1306236543   -0.5164107277
C        0.4794113588   -1.2472232602   -0.9694891317
C       -0.8313878812   -1.0182204434   -1.5595997522
C       -1.1614253693    0.0880207185   -0.5632375258
C       -0.5512771719    1.3459204818   -1.1693183867
N        0.7330576446    1.3411605794   -1.1859884310
H        2.1785538584    0.0519157436   -0.2105598320
H        1.1242978172   -2.1150004368   -1.0660207320
H       -1.2557378061   -1.2632392101   -2.5294313210
H       -2.1723940674    0.1564705830   -0.1559446927
H       -1.1286285974    2.1247461260   -1.6654546191
C        0.0410638710   -0.4668775336    0.2854498167
H        0.0451004290   -0.7683179889    1.3287113743
13   
From optimize.out: Frame 22 / 28, Energy=    -286.8383004279
C        1.1398490310    0.1316346015   -0.5164914828
C        0.4785118456   -1.2477036454   -0.9692086019
C       -0.8329311340   -1.0195731607   -1.5593933978
C       -1.1604921757    0.0877952413   -0.5624083587
C       -0.5509222143    1.3453387925   -1.1697593251
N        0.7325765820    1.3408419894   -1.1867496683
H        2.1778020428    0.0543519591   -0.2088175790
H        1.1241518201   -2.1150066660   -1.0649227178
H       -1.2560333808   -1.2598238858   -2.5310584595
H       -2.1712521816    0.1575097369   -0.1545013974
H       -1.1281585707    2.1227812766   -1.6677565895
C        0.0411761485   -0.4670162947    0.2856342208
H        0.0465310766   -0.7711509309    1.3281393962
13   
From optimize.out: Frame 23 / 28, Energy=    -286.8383156150
C        1.1397169304    0.1323499878   -0.5167171874
C        0.4764346163   -1.2494149960   -0.9683659459
C       -0.8351322858   -1.0223829281   -1.5583506661
C       -1.1594363087    0.0875653064   -0.5613877000
C       -0.5510754350    1.3450313462   -1.1701408000
N        0.7318311739    1.3405713425   -1.1870282735
H        2.1773802167    0.0568197699   -0.2076679752
H        1.1241763659   -2.1151235488   -1.0638797270
H       -1.2547719198   -1.2539925626   -2.5338282428
H       -2.1697877003    0.1582279984   -0.1522403324
H       -1.1280013416    2.1205097687   -1.6711644336
C        0.0416918618   -0.4665403097    0.2858968967
H        0.0477827156   -0.7736421611    1.3275804266
13   
From optimize.out: Frame 24 / 28, Energy=    -286.8383224635
C        1.1396068558    0.1328555208   -0.5167540890
C        0.4753731967   -1.2505592670   -0.9672615000
C       -0.8363337709   -1.0240170660   -1.5573198234
C       -1.1594011079    0.0872174012   -0.5608144150
C       -0.5514264768    1.3447277454   -1.1702071473
N        0.7315825582    1.3399937029   -1.1884558383
H        2.1772213243    0.0562433379   -0.2079149848
H        1.1250010597   -2.1147854629   -1.0634042991
H       -1.2528174081   -1.2493910007   -2.5357866781
H       -2.1694081439    0.1579701038   -0.1507804613
H       -1.1283839810    2.1194832090   -1.6722987619
C        0.0420056054   -0.4662452909    0.2860416453
H        0.0477891780   -0.7735139198    1.3276623924
13   
From optimize.out: Frame 25 / 28, Energy=    -286.8383304683
C        1.1395286844    0.1320329796   -0.5171416859
C        0.4738491869   -1.2527669974   -0.9657785465
C       -0.8375409996   -1.0264095951   -1.5556322547
C       -1.1598480113    0.0867176823   -0.5601692150
C       -0.5523227022    1.3441936147   -1.1700803151
N        0.7307353390    1.3389544560   -1.1890222610
H        2.1775944699    0.0557976584   -0.2099182347
H        1.1252199513   -2.1155344888   -1.0632969044
H       -1.2480344652   -1.2421775154   -2.5391000575
H       -2.1694387880    0.1573992370   -0.1491990953
H       -1.1293737884    2.1183752619   -1.6731748915
C        0.0426007579   -0.4660656426    0.2864038209
H        0.0478392547   -0.7705376368    1.3288156800
13   
From optimize.out: Frame 26 / 28, Energy=    -286.8383348570
C        1.1392340660    0.1315258349   -0.5176674441
C        0.4735908549   -1.2533771429   -0.9646570378
C       -0.8377404230   -1.0270255552   -1.5550028634
C       -1.1604661858    0.0859803430   -0.5598133437
C       -0.5529131067    1.3435055591   -1.1699376917
N        0.7303699093    1.3380024582   -1.1905206391
H        2.1775801953    0.0537807421   -0.2118338450
H        1.1249022736   -2.1161712694   -1.0624395941
H       -1.2442181671   -1.2371669582   -2.5415295065
H       -2.1699327104    0.1561233206   -0.1486031268
H       -1.1305007831    2.1179125078   -1.6722024100
C        0.0426745626   -0.4660695186    0.2867509042
H        0.0482284041   -0.7670413077    1.3301626373
13   
From optimize.out: Frame 27 / 28, Energy=    -286.8383371760
C        1.1390025393    0.1306136756   -0.5177936357
C        0.4741039627   -1.2534485700   -0.9643540361
C       -0.8377566953   -1.0271310289   -1.5544529149
C       -1.1608769399    0.0858248944   -0.5595974854
C       -0.5533946910    1.3428811599   -1.1702593922
N        0.7298256245    1.3373368034   -1.1908998322
H        2.1777657241    0.0538064481   -0.2131992080
H        1.1240712231   -2.1173472784   -1.0620872645
H       -1.2416852470   -1.2346478732   -2.5426496880
H       -2.1703868989    0.1560361754   -0.1485867118
H       -1.1311324784    2.1179678979   -1.6714983198
C        0.0425629693   -0.4667275366    0.2870047132
H        0.0487097971   -0.7651857538    1.3310798146
