13   
From optimize.out: Frame 1 / 2, Energy=    -286.8383370207
C        1.2440743142    0.2527275317    0.2503193254
C        0.5757887268   -1.1281582300   -0.2004073058
C       -0.7355507221   -0.8966105992   -0.7898570614
C       -1.0558106964    0.2139392876    0.2086124757
C       -0.4448641129    1.4714079870   -0.3979024983
N        0.8381818064    1.4624731756   -0.4190815764
H        2.2826029050    0.1720494619    0.5547101703
H        1.2235943286   -1.9933004274   -0.3012312881
H       -1.1404786482   -1.1003669026   -1.7784177914
H       -2.0651052431    0.2854326388    0.6198920614
H       -1.0204750992    2.2493841864   -0.8970717314
C        0.1461730167   -0.3443211364    1.0534239816
H        0.1518694241   -0.6446569734    2.0970112387
13   
From optimize.out: Frame 28 / 29, Energy=    -286.8383370206
C        1.2467292174    0.2510936150    0.2451234255
C        0.5910805040   -1.1041024919   -0.2161211030
C       -0.7335066159   -0.8670097836   -0.7977035884
C       -1.0507649966    0.2179600464    0.2263193127
C       -0.4384878433    1.4641532453   -0.4116177947
N        0.8431936135    1.4670541982   -0.4105826396
H        2.2630380637    0.1811296782    0.6205266734
H        1.2160826215   -1.9856857786   -0.3169817260
H       -1.1782704369   -1.0938436215   -1.7620460626
H       -2.0627954691    0.3045942632    0.6275095534
H       -1.0271708642    2.2038553655   -0.9501883838
C        0.1389549914   -0.3620672845    1.0546451398
H        0.1919172145   -0.6771314517    2.0911171934
13   
From optimize.out: Frame 26 / 29, Energy=    -286.8383275800
C        1.2504835111    0.2546934831    0.2461970747
C        0.5947630662   -1.0883384966   -0.2134901223
C       -0.7321624731   -0.8274113778   -0.7998000037
C       -1.0500189469    0.2145677188    0.2596074703
C       -0.4425517145    1.4293412027   -0.4430021239
N        0.8367484894    1.4591175483   -0.4201645895
H        2.2617333633    0.1956371419    0.6381952451
H        1.1891231862   -1.9927800541   -0.2884206658
H       -1.1587223326   -0.9931769037   -1.7848721287
H       -2.0573403078    0.3259182138    0.6652010910
H       -1.0538876354    2.1239525044   -1.0148271529
C        0.1413647311   -0.3734481956    1.0668782215
H        0.2204670629   -0.7280727851    2.0884976842
13   
From optimize.out: Frame 23 / 29, Energy=    -286.8382730619
C        1.2555124124    0.2574403803    0.2509681358
C        0.5988765458   -1.0741219383   -0.2075448603
C       -0.7264453847   -0.7806967885   -0.8037916662
C       -1.0542281681    0.2083580095    0.2924717044
C       -0.4496925542    1.3843645767   -0.4730767480
N        0.8286688370    1.4464005333   -0.4339314411
H        2.2708849803    0.2102024797    0.6340514761
H        1.1570006725   -2.0024833198   -0.2554864617
H       -1.1259897847   -0.8875166873   -1.8082305236
H       -2.0554992405    0.3409328552    0.7045042262
H       -1.0773848581    2.0452044587   -1.0661418723
C        0.1460286606   -0.3777047839    1.0796624191
H        0.2322678818   -0.7703797758    2.0865456118
13   
From optimize.out: Frame 18 / 29, Energy=    -286.8376206169
C        1.2635410775    0.2579819741    0.2592460489
C        0.6036404943   -1.0604689215   -0.2001754350
C       -0.7196833818   -0.7303714520   -0.8094145915
C       -1.0633815909    0.1994803402    0.3243271430
C       -0.4601152149    1.3302376583   -0.4996043134
N        0.8216278302    1.4291128741   -0.4489517696
H        2.2891485334    0.2267792797    0.6148116233
H        1.1196013735   -2.0132060591   -0.2235939962
H       -1.0853927956   -0.7813566305   -1.8307138958
H       -2.0586592730    0.3455879639    0.7439179187
H       -1.0939020578    1.9706539807   -1.1071511286
C        0.1526933556   -0.3732869853    1.0922011180
H        0.2308816496   -0.8011440225    2.0851012784
13   
From optimize.out: Frame 16 / 29, Energy=    -286.8336497256
C        1.2760813786    0.2561536117    0.2716660096
C        0.6087228163   -1.0468857958   -0.1928317914
C       -0.7142095037   -0.6812862387   -0.8161635513
C       -1.0765788348    0.1881471646    0.3540778270
C       -0.4743450032    1.2699800694   -0.5214566458
N        0.8180686904    1.4088134315   -0.4625804846
H        2.3155174145    0.2466535252    0.5832055636
H        1.0754171139   -2.0244080794   -0.1920773433
H       -1.0392358624   -0.6781944229   -1.8518025940
H       -2.0667578298    0.3402782267    0.7815406172
H       -1.1040919092    1.9028279183   -1.1395364984
C        0.1613461936   -0.3593015807    1.1041246958
H        0.2200653359   -0.8227778298    2.0818341956
13   
From optimize.out: Frame 13 / 29, Energy=    -286.8211256967
C        1.2926101963    0.2522855089    0.2878177359
C        0.6136292907   -1.0343145255   -0.1863296398
C       -0.7104440154   -0.6401762575   -0.8221585165
C       -1.0911551465    0.1740590667    0.3802341660
C       -0.4916614926    1.2104887214   -0.5362772086
N        0.8164403684    1.3876315140   -0.4743959851
H        2.3470877099    0.2709136120    0.5377332435
H        1.0212804133   -2.0372218156   -0.1563970560
H       -0.9844788264   -0.5807718811   -1.8702702805
H       -2.0776954551    0.3288389262    0.8136425082
H       -1.1105619967    1.8455894615   -1.1624902796
C        0.1717561358   -0.3372339617    1.1149955773
H        0.2031928182   -0.8400883695    2.0738957351
13   
From optimize.out: Frame 11 / 29, Energy=    -286.8108015394
C        1.3132704851    0.2440593468    0.3074742125
C        0.6180074537   -1.0252644169   -0.1793134575
C       -0.7077714430   -0.6110767045   -0.8254088678
C       -1.1068280585    0.1540914420    0.4009953179
C       -0.5103594828    1.1571683377   -0.5385864267
N        0.8138102076    1.3635641507   -0.4865296956
H        2.3808551497    0.3003816791    0.4748772487
H        0.9594196720   -2.0521086504   -0.1222341453
H       -0.9190798259   -0.4904217258   -1.8826236536
H       -2.0923246475    0.3101549011    0.8349149547
H       -1.1104850025    1.8039120695   -1.1725567080
C        0.1838323840   -0.3084348993    1.1243564160
H        0.1776531082   -0.8460255300    2.0646348048
13   
From optimize.out: Frame 8 / 29, Energy=    -286.7928241251
C        1.3422545677    0.2296244724    0.3326120067
C        0.6232534083   -1.0190435624   -0.1700484665
C       -0.7070443777   -0.5911068618   -0.8234541813
C       -1.1278526075    0.1254536979    0.4151678239
C       -0.5303783857    1.1085531779   -0.5265872352
N        0.8119953591    1.3348403988   -0.4988893709
H        2.4153988052    0.3271095364    0.4035149077
H        0.9023567685   -2.0657474601   -0.1077070494
H       -0.8534049957   -0.4070195018   -1.8829676535
H       -2.1158394474    0.2806226664    0.8417945499
H       -1.1004489126    1.7756584075   -1.1717560523
C        0.1988290864   -0.2727952350    1.1295046326
H        0.1408807316   -0.8261497363    2.0588160883
13   
From optimize.out: Frame 6 / 29, Energy=    -286.7714670414
C        1.3845573062    0.2128223397    0.3645938875
C        0.6337237719   -1.0114290425   -0.1595546908
C       -0.7125715836   -0.5758573776   -0.8136246349
C       -1.1588902170    0.0923509510    0.4216260304
C       -0.5544682980    1.0607866458   -0.5047823315
N        0.8166195821    1.3052359520   -0.5082473724
H        2.4533219839    0.3361442466    0.3447470414
H        0.8609664617   -2.0742905305   -0.1172535705
H       -0.8034979857   -0.3325911759   -1.8686655427
H       -2.1526042044    0.2434099116    0.8337849830
H       -1.0869672843    1.7534341441   -1.1653555998
C        0.2202848500   -0.2302649450    1.1240751100
H        0.0995256171   -0.7797511192    2.0486566904
13   
From optimize.out: Frame 3 / 29, Energy=    -286.7052180975
C        1.4394101389    0.1971854188    0.4001877574
C        0.6523835619   -1.0020084363   -0.1497384057
C       -0.7294024153   -0.5641729651   -0.7961519039
C       -1.1980324250    0.0626420765    0.4187450459
C       -0.5834634803    1.0148717856   -0.4783712040
N        0.8313597635    1.2753381835   -0.5087118870
H        2.4973460271    0.3260939297    0.3140534942
H        0.8371207228   -2.0783432207   -0.1388459582
H       -0.7783499989   -0.2713915182   -1.8431254949
H       -2.1992533388    0.2083465421    0.8115697093
H       -1.0830105619    1.7344725873   -1.1557944295
C        0.2499337715   -0.1848614342    1.1039673685
H        0.0639582346   -0.7181729490    2.0222159081
13   
C5H5N+CH->C6H6N atoms 1-13 frame 171 charge -0.000 sz -1.000 sz^2 0.854
C        1.4918936854    0.1844331449    0.4259945246
C        0.6746509648   -0.9930553991   -0.1408285801
C       -0.7536388950   -0.5581865421   -0.7830281604
C       -1.2284093459    0.0372650770    0.4089510953
C       -0.6113288709    0.9667953611   -0.4571705474
N        0.8489798265    1.2432389420   -0.5006164250
H        2.5399547211    0.3126078148    0.3142270920
H        0.8178877770   -2.0768946569   -0.1604350943
H       -0.7777718350   -0.2208505828   -1.8157898053
H       -2.2389200122    0.1794038777    0.7737717004
H       -1.0883272814    1.7192667034   -1.1362111067
C        0.2778699682   -0.1409349813    1.0735101863
H        0.0471592971   -0.6530887588    1.9976251205
13   
C5H5N+CH->C6H6N atoms 1-13 frame 173 charge -0.000 sz -1.000 sz^2 0.900
C        1.5160302842    0.1775612514    0.4156003372
C        0.6869188048   -0.9906286307   -0.1283095663
C       -0.7729663286   -0.5672529457   -0.8128403912
C       -1.2312770773    0.0165946186    0.4012298690
C       -0.6334488274    0.9074101067   -0.4701222166
N        0.8663746145    1.2370952675   -0.5122998776
H        2.5736141675    0.3207238692    0.3649303960
H        0.7697809167   -2.0591886644   -0.1734483802
H       -0.8132302222   -0.1887032372   -1.8185889211
H       -2.2598098552    0.1550318697    0.7085273933
H       -1.0819828695    1.7099345037   -1.0801800781
C        0.2839784937   -0.1104144906    1.0511431275
H        0.0960178986   -0.6081635181    2.0543583081
13   
From optimize.out: Frame 3 / 27, Energy=    -286.6828384093
C        1.5083620926    0.1778236089    0.3902770960
C        0.6849421328   -0.9955118725   -0.1185903500
C       -0.7736193364   -0.5772722919   -0.8524820844
C       -1.2217680813    0.0129296225    0.4050464038
C       -0.6384594313    0.8846606209   -0.4990705490
N        0.8735276996    1.2550305693   -0.5314768813
H        2.5804941797    0.3378781277    0.4231689759
H        0.7368317592   -2.0530774678   -0.1704457736
H       -0.8529982052   -0.1944883705   -1.8518246598
H       -2.2624904180    0.1469007919    0.6754369871
H       -1.0719681385    1.7169032672   -1.0389583160
C        0.2717391071   -0.1127022624    1.0567842582
H        0.1654066397   -0.5990743433    2.1121348930
13   
From optimize.out: Frame 5 / 27, Energy=    -286.7397557870
C        1.4533996058    0.1872623689    0.3605657808
C        0.6641338740   -1.0066959228   -0.1214910348
C       -0.7420989577   -0.5819354956   -0.8627559659
C       -1.1893802227    0.0337197571    0.4217895191
C       -0.6090717834    0.9277268612   -0.5226681766
N        0.8486821524    1.2793864114   -0.5366824926
H        2.5233394338    0.3579641004    0.4311527968
H        0.7486548916   -2.0720639263   -0.1505575999
H       -0.8461360449   -0.2409210534   -1.8813911270
H       -2.2255570891    0.1716962943    0.7120539452
H       -1.0669799175    1.7499108295   -1.0558445281
C        0.2423926948   -0.1576901461    1.0919932483
H        0.1986213630   -0.6483600786    2.1138356346
13   
From optimize.out: Frame 8 / 27, Energy=    -286.7847929508
C        1.3988937981    0.2005699205    0.3331078770
C        0.6438376917   -1.0159601879   -0.1327057839
C       -0.7155107602   -0.5835609867   -0.8600112904
C       -1.1560023207    0.0648563036    0.4297132574
C       -0.5757872772    0.9817319072   -0.5410202362
N        0.8244063665    1.2977448504   -0.5287463168
H        2.4647784938    0.3677579310    0.4382395587
H        0.7784411083   -2.0843132158   -0.1321391892
H       -0.8413756236   -0.2996382057   -1.8964415980
H       -2.1829516549    0.2091203123    0.7506664308
H       -1.0740081306    1.7771322002   -1.0828518601
C        0.2176982791   -0.2069287119    1.1178315017
H        0.2175800297   -0.7085121171    2.1043576492
13   
From optimize.out: Frame 10 / 27, Energy=    -286.7995075528
C        1.3564578253    0.2176981403    0.3099622594
C        0.6294869311   -1.0213628140   -0.1487553263
C       -0.7023002037   -0.5832967594   -0.8535848755
C       -1.1299500411    0.1034151827    0.4277267331
C       -0.5469584053    1.0380757059   -0.5588272627
N        0.8167248121    1.3220892497   -0.5142295845
H        2.4185424253    0.3574753751    0.4703817604
H        0.8263187437   -2.0839449050   -0.1213525056
H       -0.8641875188   -0.3746027326   -1.9037634705
H       -2.1463093188    0.2509930097    0.7816115651
H       -1.0932247278    1.7955422156   -1.1102677965
C        0.1999913805   -0.2551610842    1.1284361316
H        0.2354080976   -0.7669205839    2.0926623718
13   
From optimize.out: Frame 13 / 27, Energy=    -286.8107555875
C        1.3281460391    0.2354458435    0.2950615444
C        0.6217782264   -1.0218388743   -0.1660424382
C       -0.6992979555   -0.5808449351   -0.8455817291
C       -1.1125297779    0.1399188788    0.4184183473
C       -0.5227635390    1.0896615810   -0.5728637764
N        0.8219080855    1.3511534067   -0.4946856911
H        2.3831204561    0.3258360160    0.5219745762
H        0.8922023060   -2.0696927589   -0.1320077477
H       -0.9154095303   -0.4591182696   -1.8997836407
H       -2.1181374558    0.2865215174    0.8041304732
H       -1.1115903009    1.8051442523   -1.1368835771
C        0.1870983191   -0.2962294002    1.1257394209
H        0.2454751272   -0.8059572577    2.0825242383
13   
From optimize.out: Frame 15 / 27, Energy=    -286.8147680831
C        1.3111460088    0.2482983440    0.2892633089
C        0.6177265456   -1.0203942666   -0.1801141624
C       -0.6991146059   -0.5755868993   -0.8396022501
C       -1.1023360450    0.1663210092    0.4049268069
C       -0.5018153432    1.1317662937   -0.5809805932
N        0.8320003065    1.3783978981   -0.4691474067
H        2.3549150534    0.2874626141    0.5769018415
H        0.9678846596   -2.0451361542   -0.1736270010
H       -0.9857637118   -0.5469657052   -1.8829606286
H       -2.0986419691    0.3101155740    0.8164339652
H       -1.1160011143    1.8116273921   -1.1618274476
C        0.1761393942   -0.3293362675    1.1177908459
H        0.2438608213   -0.8165698324    2.0829427212
13   
From optimize.out: Frame 20 / 27, Energy=    -286.8232949038
C        1.3017319984    0.2538941873    0.2914735973
C        0.6141715746   -1.0198918743   -0.1889697181
C       -0.6956350245   -0.5645442808   -0.8399734326
C       -1.0973632833    0.1808809656    0.3903444960
C       -0.4845955379    1.1627123108   -0.5838753078
N        0.8433919805    1.3998811169   -0.4384391118
H        2.3336154050    0.2539808997    0.6239101436
H        1.0398464974   -2.0140114314   -0.2419434535
H       -1.0621837368   -0.6373506067   -1.8545410491
H       -2.0873009074    0.3209097185    0.8187799897
H       -1.1042206731    1.8211354000   -1.1830523307
C        0.1661296263   -0.3560425533    1.1106613717
H        0.2324120806   -0.8015538524    2.0956248054
13   
From optimize.out: Frame 24 / 27, Energy=    -286.8249515930
C        1.2973054242    0.2549376638    0.3012167528
C        0.6100238772   -1.0187741272   -0.1944329564
C       -0.6853034396   -0.5368479672   -0.8521770087
C       -1.0955751450    0.1872010501    0.3784634438
C       -0.4720571334    1.1767892503   -0.5892469465
N        0.8563010835    1.4162188914   -0.4036325011
H        2.3197004877    0.2263052268    0.6620495586
H        1.0963416051   -1.9774474747   -0.3227257975
H       -1.1361740353   -0.7299951794   -1.8130664162
H       -2.0827715258    0.3203124721    0.8148047462
H       -1.0826392196    1.8318762452   -1.2004280030
C        0.1577457705   -0.3770092808    1.1059243552
H        0.2171022507   -0.7735667705    2.1132507730
13   
From optimize.out: Frame 26 / 27, Energy=    -286.8249842871
C        1.2962091532    0.2557265051    0.3182097645
C        0.6028389510   -1.0135548807   -0.1981301986
C       -0.6664042816   -0.4747446513   -0.8806189863
C       -1.0959182734    0.1891365587    0.3759677917
C       -0.4650207314    1.1578065668   -0.6123094767
N        0.8718446428    1.4268851462   -0.3678088307
H        2.3117308316    0.2038188756    0.6959054917
H        1.1315287565   -1.9365935777   -0.4001427278
H       -1.1995422007   -0.8065806365   -1.7562521447
H       -2.0824343094    0.3126282881    0.8141767289
H       -1.0611909631    1.8283246498   -1.2198637682
C        0.1512201908   -0.3939009191    1.1031746370
H        0.2051382337   -0.7489519250    2.1276917192
13   
From optimize.out: Frame 1 / 2, Energy=    -286.8249819809
C        1.2996058262    0.2660350258    0.3331908980
C        0.6002727092   -1.0020274838   -0.1978148853
C       -0.6447715862   -0.4101298348   -0.9049914339
C       -1.0991204165    0.1891478011    0.3967577251
C       -0.4610978696    1.1018594116   -0.6667973994
N        0.8776952333    1.4291047430   -0.3511848725
H        2.3162468547    0.2171485101    0.7075669742
H        1.1132013688   -1.9340755772   -0.4069191068
H       -1.2159570787   -0.8319764301   -1.7242774415
H       -2.0959177514    0.3279814911    0.8001986054
H       -1.0637964006    1.8218941947   -1.2092389750
C        0.1467154053   -0.4022628063    1.1038276730
H        0.2269237054   -0.7726990451    2.1196822387
