13   
Frame   0 IRC: Energy =  -286.8764961209 ; +0.0000 kcal/mol
C        1.6806220490    0.4064389654   -0.1596845201
C        1.1335791003   -0.8278867552   -0.2626938280
C       -0.3067691375   -1.0694230393   -0.0886928063
C       -1.1622985611    0.3248777942    0.0410068280
C       -0.3382750323    1.5316444022   -0.1462829207
N        0.9507733155    1.5951832289   -0.1467868137
H        2.7561286000    0.5415924400   -0.2233136675
H        1.7630345620   -1.6821874092   -0.4978504089
H       -0.7381328327   -1.9104105128   -0.6337059307
H       -2.1665022145    0.3852148665   -0.3820983531
H       -0.8793018298    2.4560415369   -0.3584331341
C       -0.9654562855   -0.6261488044    1.1361771961
H       -1.7274017331   -1.1249367133    1.7223583585
13   
Frame   1 IRC: Energy =  -286.8761289589 ; +0.2304 kcal/mol
C        1.6701685626    0.4007646362   -0.1287005321
C        1.1222198822   -0.8302365818   -0.2790744998
C       -0.3209413095   -1.0649423276   -0.1285098783
C       -1.1664073948    0.3293480521    0.0475438234
C       -0.3457536734    1.5320719989   -0.1672952295
N        0.9434381929    1.5911415079   -0.1486116589
H        2.7480858251    0.5321566251   -0.1290920341
H        1.7543622688   -1.6842345169   -0.5053517744
H       -0.7678848507   -1.8858032111   -0.6911650847
H       -2.1828835906    0.3867453914   -0.3464867103
H       -0.8807019983    2.4468445894   -0.4289457606
C       -0.9341002321   -0.6317664539    1.1240073591
H       -1.6396016822   -1.1220897096    1.7816819802
13   
Frame   2 IRC: Energy =  -286.8749155193 ; +0.9918 kcal/mol
C        1.6560119620    0.3929279899   -0.0964591201
C        1.1106680536   -0.8336799077   -0.2931496623
C       -0.3369436960   -1.0625759712   -0.1661468374
C       -1.1762289697    0.3297876163    0.0387474547
C       -0.3553454562    1.5316208562   -0.1815684046
N        0.9339621105    1.5835394190   -0.1361556754
H        2.7327336648    0.5199292035   -0.0434069597
H        1.7455475788   -1.6877603788   -0.5164941018
H       -0.7928422122   -1.8671764025   -0.7458842654
H       -2.1969311948    0.3841154907   -0.3474570282
H       -0.8812070827    2.4421933863   -0.4764963244
C       -0.9161245024   -0.6333348708    1.1017918499
H       -1.5233002559   -1.0995864311    1.8626790746
13   
Frame   3 IRC: Energy =  -286.8730168260 ; +2.1833 kcal/mol
C        1.6416167007    0.3847910313   -0.0618208749
C        1.0988329428   -0.8384837051   -0.2994449299
C       -0.3495920499   -1.0646578930   -0.1986905354
C       -1.1909182252    0.3356871368    0.0359727011
C       -0.3643505690    1.5304653102   -0.1925460764
N        0.9242783705    1.5755529094   -0.1223244062
H        2.7158813080    0.5077311378    0.0340100898
H        1.7373147968   -1.6873028901   -0.5296164599
H       -0.8094062947   -1.8517756642   -0.7996998605
H       -2.2146332750    0.3949755079   -0.3445614453
H       -0.8775610583    2.4322098902   -0.5316657901
C       -0.9161344202   -0.6422649649    1.0740394839
H       -1.3953282266   -1.0769278063    1.9363481037
13   
Frame   4 IRC: Energy =  -286.8707555727 ; +3.6023 kcal/mol
C        1.6263992854    0.3782660973   -0.0262403469
C        1.0874607115   -0.8407597355   -0.3082795449
C       -0.3591609600   -1.0640412336   -0.2264066025
C       -1.2008384242    0.3467744266    0.0466604656
C       -0.3715442069    1.5289483299   -0.2098402821
N        0.9173649282    1.5680306005   -0.1160720137
H        2.6966559302    0.4955987147    0.1248613822
H        1.7284687608   -1.6827422185   -0.5527729444
H       -0.8296911102   -1.8350708263   -0.8426208916
H       -2.2352496462    0.4102682178   -0.3113898056
H       -0.8708634326    2.4132988357   -0.6079909924
C       -0.9128578994   -0.6522890695    1.0528240705
H       -1.2761439366   -1.0662821390    1.9772675058
13   
Frame   5 IRC: Energy =  -286.8678473041 ; +5.4272 kcal/mol
C        1.6113103933    0.3731707786    0.0054960841
C        1.0770822386   -0.8390963796   -0.3296943984
C       -0.3684441606   -1.0586252022   -0.2539234729
C       -1.2034320494    0.3569764692    0.0593083359
C       -0.3760252608    1.5282835291   -0.2357765601
N        0.9118702001    1.5621093150   -0.1180395592
H        2.6664827166    0.4806071347    0.2375917845
H        1.7193074653   -1.6770947681   -0.5881483993
H       -0.8587011962   -1.8184878169   -0.8650507591
H       -2.2495600643    0.4142087665   -0.2549735565
H       -0.8648677344    2.3927984653   -0.6890348905
C       -0.8788111141   -0.6479892171    1.0449331828
H       -1.1862114340   -1.0668610747    1.9873122087
13   
Frame   6 IRC: Energy =  -286.8636861906 ; +8.0384 kcal/mol
C        1.5947344084    0.3669729102    0.0309575826
C        1.0675771495   -0.8351837264   -0.3609177682
C       -0.3764113866   -1.0499364499   -0.2813097770
C       -1.1971506156    0.3624695861    0.0656392861
C       -0.3798345041    1.5301864130   -0.2653881473
N        0.9059806613    1.5583780456   -0.1239132600
H        2.6223403558    0.4607849408    0.3605754955
H        1.7116489859   -1.6714402323   -0.6293696831
H       -0.8897614785   -1.8089441521   -0.8716423573
H       -2.2565433182    0.4060651382   -0.1962487493
H       -0.8605822259    2.3783750297   -0.7558309376
C       -0.8252284446   -0.6333860796    1.0432056703
H       -1.1167695874   -1.0643414233    1.9842426454
13   
Frame   7 IRC: Energy =  -286.8578474343 ; +11.7022 kcal/mol
C        1.5731728020    0.3610400737    0.0513157098
C        1.0609459181   -0.8328569935   -0.3981884493
C       -0.3830468485   -1.0403592761   -0.3075157027
C       -1.1846490355    0.3639289459    0.0647921405
C       -0.3826095080    1.5335323644   -0.2946586712
N        0.8999905119    1.5558404330   -0.1301363795
H        2.5642081932    0.4351972253    0.4848642453
H        1.7061640209   -1.6643829301   -0.6721726305
H       -0.9189005885   -1.8070543125   -0.8669432211
H       -2.2558912250    0.3888881045   -0.1412591385
H       -0.8583511264    2.3728028525   -0.8065222987
C       -0.7615749209   -0.6129439606    1.0414400623
H       -1.0594581933   -1.0536325264    1.9749843336
13   
Frame   8 IRC: Energy =  -286.8501030528 ; +16.5619 kcal/mol
C        1.5456599053    0.3522910847    0.0749780564
C        1.0545388371   -0.8320416392   -0.4374425499
C       -0.3880283109   -1.0327441114   -0.3331221373
C       -1.1676989742    0.3621850225    0.0580185341
C       -0.3859671378    1.5387168582   -0.3230463717
N        0.8922305664    1.5539010523   -0.1327716006
H        2.4919933025    0.4046592009    0.6006540290
H        1.7051682422   -1.6576741605   -0.7143858674
H       -0.9456643863   -1.8102954389   -0.8543826414
H       -2.2466641410    0.3665680105   -0.0924638395
H       -0.8592032102    2.3745310901   -0.8432292193
C       -0.6875910241   -0.5862579505    1.0378295451
H       -1.0087736690   -1.0338390187    1.9593640625
13   
Frame   9 IRC: Energy =  -286.8404004289 ; +22.6504 kcal/mol
C        1.4986021211    0.3356838148    0.1206691166
C        1.0469047665   -0.8342768663   -0.4808769086
C       -0.3912675885   -1.0274591247   -0.3578041067
C       -1.1482652093    0.3571237078    0.0483309019
C       -0.3907247763    1.5434388898   -0.3496187565
N        0.8819098447    1.5501028712   -0.1340528143
H        2.4159881936    0.3751833006    0.6941406497
H        1.7091040398   -1.6532477800   -0.7514848877
H       -0.9673094360   -1.8157454711   -0.8395865963
H       -2.2308975857    0.3470974438   -0.0564919079
H       -0.8628827587    2.3804154770   -0.8667418993
C       -0.5988739332   -0.5514844421    1.0359595180
H       -0.9622876781   -1.0068318210    1.9375576911
13   
Frame  10 IRC: Energy =  -286.8303246137 ; +28.9731 kcal/mol
C        1.4207462424    0.3110580681    0.2036019876
C        1.0391399376   -0.8385692087   -0.5377257080
C       -0.3912783072   -1.0259158829   -0.3766515789
C       -1.1335396033    0.3480173496    0.0359881631
C       -0.3922885648    1.5470971367   -0.3681624702
N        0.8754496533    1.5476706713   -0.1441989717
H        2.3543219578    0.3541024867    0.7531140234
H        1.7163343075   -1.6536717081   -0.7753016081
H       -0.9801637113   -1.8209462560   -0.8273537776
H       -2.2191664143    0.3362837373   -0.0398977240
H       -0.8656440568    2.3861015254   -0.8760702303
C       -0.5030598437   -0.5132032698    1.0357170726
H       -0.9208515971   -0.9780246496    1.9169408220
13   
Frame  11 IRC: Energy =  -286.8292327593 ; +29.6582 kcal/mol (Transition State)
C        1.3301834801    0.2823407267    0.2969521738
C        1.0343686695   -0.8408524555   -0.5987969766
C       -0.3920539702   -1.0251831760   -0.3904258720
C       -1.1244035935    0.3380421698    0.0185592415
C       -0.3905959999    1.5504184479   -0.3796952329
N        0.8734789096    1.5472600070   -0.1556877337
H        2.3003754676    0.3355571089    0.7970658881
H        1.7228576552   -1.6553750858   -0.7893056506
H       -0.9891478574   -1.8257576728   -0.8155345455
H       -2.2118064228    0.3276394963   -0.0305385018
H       -0.8672416255    2.3908738791   -0.8792205893
C       -0.4124331477   -0.4766575981    1.0259230452
H       -0.8735815649   -0.9483058477    1.9007047537
13   
Frame  12 IRC: Energy =  -286.8390265220 ; +23.5125 kcal/mol
C        1.2445652741    0.2470605150    0.3729893955
C        1.0320335848   -0.8353235547   -0.6457423432
C       -0.3959447467   -1.0221930387   -0.4095819392
C       -1.1165535566    0.3285935676   -0.0041715174
C       -0.3891774098    1.5538167378   -0.3899337816
N        0.8694524349    1.5452495200   -0.1551383673
H        2.2347014315    0.3095077899    0.8468772255
H        1.7264032376   -1.6533601626   -0.8000650590
H       -0.9988518670   -1.8323992284   -0.8016885830
H       -2.2041448631    0.3148660621   -0.0189345965
H       -0.8687725793    2.3969936456   -0.8814559258
C       -0.3312744321   -0.4416868659    1.0026363389
H       -0.8024365083   -0.9111249875    1.8842091531
13   
Frame  13 IRC: Energy =  -286.8496714134 ; +16.8328 kcal/mol
C        1.1806185180    0.2186111496    0.4171035011
C        1.0308953500   -0.8260966621   -0.6785977701
C       -0.4022318753   -1.0181486546   -0.4370727598
C       -1.1116703946    0.3200370529   -0.0295127486
C       -0.3899846262    1.5575607870   -0.4014430727
N        0.8628708515    1.5443728024   -0.1409327032
H        2.1552868820    0.2706324236    0.9146613086
H        1.7270986022   -1.6476930976   -0.8109871471
H       -1.0103120702   -1.8424327960   -0.7870028372
H       -2.1971335732    0.2971619342   -0.0023552107
H       -0.8686240055    2.4052593459   -0.8863223327
C       -0.2717281531   -0.4128623615    0.9706960249
H       -0.7050855057   -0.8664019239    1.8717657476
13   
Frame  14 IRC: Energy =  -286.8560630323 ; +12.8220 kcal/mol
C        1.1472965272    0.2082621954    0.4268640303
C        1.0302239722   -0.8154720123   -0.7071742292
C       -0.4091528619   -1.0182252719   -0.4649308877
C       -1.1135500702    0.3137581962   -0.0536291209
C       -0.3919574996    1.5637357587   -0.4123544309
N        0.8577429609    1.5512091146   -0.1232675401
H        2.0709755471    0.2196439620    1.0054274687
H        1.7260808497   -1.6396575147   -0.8263138010
H       -1.0208367557   -1.8557897660   -0.7765529808
H       -2.1953556582    0.2769818994    0.0147169843
H       -0.8622965962    2.4149543636   -0.8970714739
C       -0.2457743863   -0.3978714063    0.9370353608
H       -0.5933960288   -0.8215295186    1.8772506204
13   
Frame  15 IRC: Energy =  -286.8575840000 ; +11.8675 kcal/mol
C        1.1290306652    0.2003782706    0.4389300968
C        1.0271923875   -0.8095820377   -0.7114818623
C       -0.4106860712   -1.0260874292   -0.4658438804
C       -1.1190603794    0.3115164347   -0.0600503210
C       -0.3880110979    1.5620825015   -0.4196008795
N        0.8558930538    1.5497692232   -0.1109381476
H        2.0070494255    0.1809600550    1.0836372157
H        1.7391646816   -1.6044900340   -0.8984335998
H       -1.0227048808   -1.8670319411   -0.7725431337
H       -2.2005938284    0.2669609232    0.0116614918
H       -0.8431084263    2.4113473388   -0.9266710514
C       -0.2473240822   -0.3909763680    0.9295544276
H       -0.5268414475   -0.7848469369    1.9017796439
