13   
From optimize.out: Frame 1 / 3, Energy=    -286.9243426791
C        1.3465104195    0.8469828365   -0.5700229709
C        0.2498509821   -1.4175871674   -0.2288799240
C       -0.9303211124   -1.0644071882    0.3542008989
C       -1.3755064533    0.2694998004    0.6674314811
C       -0.7119144328    1.4632636173    0.4570171237
N        0.4898041816    1.7747225393   -0.0831427828
H        2.2547772053    1.3025389338   -0.9692946358
H        0.4268808946   -2.4788071002   -0.3925520185
H       -1.6168568507   -1.8669579562    0.6148219268
H       -2.3541047705    0.3526943603    1.1339956277
H       -1.2519685905    2.3527968545    0.7876220679
C        1.3016303249   -0.5320265781   -0.6593694333
H        2.1712182022   -1.0027129518   -1.1118273608
13   
From optimize.out: Frame 2 / 3, Energy=    -286.9243457448
C        1.3472515847    0.8471269015   -0.5704831078
C        0.2493269033   -1.4171693927   -0.2298456718
C       -0.9303587591   -1.0642376942    0.3544671919
C       -1.3751082017    0.2694510511    0.6690993065
C       -0.7124542785    1.4634158877    0.4565457979
N        0.4890174313    1.7744295363   -0.0849378111
H        2.2578093568    1.3015884455   -0.9674658055
H        0.4258924868   -2.4781684505   -0.3950965960
H       -1.6167315406   -1.8670413326    0.6160883127
H       -2.3535799602    0.3520229829    1.1361447548
H       -1.2541165101    2.3528849344    0.7859345114
C        1.3014963144   -0.5317091505   -0.6595939709
H        2.1715551728   -1.0025937188   -1.1108569119
