13   
Frame   0 IRC: Energy =  -286.8454160000 ; +0.0000 kcal/mol
C        1.3123784607    0.3056363587    0.2477164281
C        0.6118983208   -0.9997173330   -0.1765875210
C       -0.6818624658   -0.4706159523   -0.8476368617
C       -1.0814637460    0.1896641419    0.4443562748
C       -0.5215585606    1.0571232286   -0.6996129707
N        0.8252320260    1.4202971889   -0.4713984287
H        2.3476170808    0.2963434849    0.5677401874
H        1.1305173416   -1.9331386426   -0.3617493947
H       -1.2832341542   -0.9489927669   -1.6116467112
H       -2.0598661655    0.3296655997    0.8889198490
H       -1.1656267109    1.7402466902   -1.2405097431
C        0.2119917484   -0.3389683024    1.1157089676
H        0.3539768249   -0.6475436955    2.1446999240
13   
Frame   1 IRC: Energy =  -286.8454070000 ; +0.0056 kcal/mol
C        1.3124803808    0.3052203776    0.2473786657
C        0.6120268364   -0.9998062042   -0.1762874129
C       -0.6817879910   -0.4705286583   -0.8479057946
C       -1.0816489031    0.1895553633    0.4437104060
C       -0.5217139410    1.0573821402   -0.6994295369
N        0.8255528189    1.4202871870   -0.4716264520
H        2.3480377585    0.2951661016    0.5659671190
H        1.1310820917   -1.9329595001   -0.3609053671
H       -1.2830404762   -0.9504846091   -1.6112340950
H       -2.0603682504    0.3282604366    0.8872384647
H       -1.1656454681    1.7426390649   -1.2378198125
C        0.2119701188   -0.3387969579    1.1156697477
H        0.3530550247   -0.6459347416    2.1452440679
13   
Frame   2 IRC: Energy =  -286.8454020000 ; +0.0088 kcal/mol
C        1.3124671533    0.3052354862    0.2471152746
C        0.6118976605   -0.9997580152   -0.1763287660
C       -0.6816896327   -0.4707760492   -0.8482275666
C       -1.0813023628    0.1894418072    0.4436119345
C       -0.5216199608    1.0577352789   -0.6994088370
N        0.8255379843    1.4200641597   -0.4716640155
H        2.3483054797    0.2946534747    0.5652421115
H        1.1313882951   -1.9329682806   -0.3605406382
H       -1.2829075120   -0.9510953547   -1.6109965570
H       -2.0607978558    0.3277010137    0.8866112626
H       -1.1656449579    1.7436521045   -1.2366392123
C        0.2117102061   -0.3386291754    1.1157796506
H        0.3526555029   -0.6452564498    2.1454453590
13   
Frame   3 IRC: Energy =  -286.8453840000 ; +0.0201 kcal/mol
C        1.3125880987    0.3047471527    0.2466540700
C        0.6120343909   -0.9999521094   -0.1760300094
C       -0.6815712727   -0.4707078412   -0.8485384580
C       -1.0816448000    0.1892894400    0.4428159350
C       -0.5217437612    1.0579776419   -0.6991606494
N        0.8258836224    1.4199443385   -0.4720652148
H        2.3487754255    0.2933333997    0.5629988499
H        1.1322509462   -1.9326944415   -0.3593419586
H       -1.2826851270   -0.9531883031   -1.6105973705
H       -2.0612783327    0.3260987538    0.8846569833
H       -1.1655892878    1.7469441550   -1.2331411555
C        0.2116048061   -0.3384155068    1.1156816231
H        0.3513752917   -0.6433766798    2.1460673551
13   
Frame   4 IRC: Energy =  -286.8453720000 ; +0.0276 kcal/mol
C        1.3125419215    0.3046913218    0.2462801135
C        0.6118793502   -0.9998663656   -0.1760012083
C       -0.6815466497   -0.4711244521   -0.8490792494
C       -1.0811946814    0.1891029314    0.4426304287
C       -0.5217507025    1.0585464949   -0.6992095080
N        0.8259092723    1.4196095639   -0.4721888223
H        2.3491363929    0.2926637606    0.5618975617
H        1.1327968315   -1.9326927876   -0.3587300193
H       -1.2824478979   -0.9541789185   -1.6102549026
H       -2.0618505844    0.3253462454    0.8838079415
H       -1.1654562902    1.7485450693   -1.2312512650
C        0.2112704112   -0.3382164103    1.1157626758
H        0.3507126266   -0.6424264535    2.1463362537
13   
Frame   5 IRC: Energy =  -286.8453360000 ; +0.0502 kcal/mol
C        1.3126317725    0.3040891901    0.2456080140
C        0.6120079715   -1.0002460233   -0.1757074995
C       -0.6814535275   -0.4711089648   -0.8494427108
C       -1.0816649660    0.1888543283    0.4415525762
C       -0.5218534331    1.0587152458   -0.6988274515
N        0.8262746651    1.4192763297   -0.4728697022
H        2.3496423387    0.2912470403    0.5590003545
H        1.1341563670   -1.9323003875   -0.3570153444
H       -1.2821594544   -0.9571131241   -1.6099172280
H       -2.0623761593    0.3234937778    0.8815887450
H       -1.1651731349    1.7532264983   -1.2266357317
C        0.2110141786   -0.3379834695    1.1156300505
H        0.3489533818   -0.6401504409    2.1470359279
13   
Frame   6 IRC: Energy =  -286.8453100000 ; +0.0665 kcal/mol
C        1.3125500178    0.3039131606    0.2450842506
C        0.6118164236   -1.0001728891   -0.1755877413
C       -0.6815360614   -0.4718028074   -0.8503015410
C       -1.0812301363    0.1885796511    0.4413591694
C       -0.5220022045    1.0596052004   -0.6989828430
N        0.8263005271    1.4187293666   -0.4731629885
H        2.3500657607    0.2904728706    0.5573996783
H        1.1350949221   -1.9322741668   -0.3560420602
H       -1.2817822958   -0.9586435835   -1.6094978378
H       -2.0630532396    0.3225254863    0.8805044677
H       -1.1647417172    1.7557027971   -1.2237882346
C        0.2105800903   -0.3377693914    1.1156283387
H        0.3479379131   -0.6388656946    2.1473873418
13   
Frame   7 IRC: Energy =  -286.8452380000 ; +0.1117 kcal/mol
C        1.3124551991    0.3030566214    0.2439704089
C        0.6119716118   -1.0009093653   -0.1753156158
C       -0.6815528785   -0.4719359188   -0.8506045895
C       -1.0818372742    0.1881021863    0.4398240749
C       -0.5221838208    1.0597362115   -0.6983490637
N        0.8266678393    1.4179987710   -0.4743331471
H        2.3504752334    0.2891274323    0.5535517821
H        1.1373889917   -1.9318604309   -0.3535665689
H       -1.2812607278   -0.9627124442   -1.6092270385
H       -2.0637758191    0.3204193086    0.8780972289
H       -1.1638949816    1.7626086317   -1.2176323181
C        0.2100322680   -0.3376042167    1.1154154947
H        0.3455143587   -0.6360267869    2.1481693519
13   
Frame   8 IRC: Energy =  -286.8451810000 ; +0.1475 kcal/mol
C        1.3122716939    0.3025753581    0.2431107372
C        0.6119473438   -1.0009608481   -0.1751109603
C       -0.6818033736   -0.4732536825   -0.8516226190
C       -1.0816750812    0.1876059910    0.4396325084
C       -0.5223773856    1.0612702390   -0.6986292704
N        0.8266876707    1.4171223460   -0.4749650752
H        2.3507638104    0.2884127584    0.5512091744
H        1.1390004131   -1.9318318765   -0.3520534241
H       -1.2806016433   -0.9649303498   -1.6087001095
H       -2.0645919360    0.3192543192    0.8768497029
H       -1.1629483343    1.7665564674   -1.2135476964
C        0.2093092205   -0.3375327975    1.1152805134
H        0.3440176016   -0.6342879248    2.1485465185
13   
Frame   9 IRC: Energy =  -286.8449920000 ; +0.2661 kcal/mol
C        1.3115706164    0.3004125974    0.2390831958
C        0.6127508172   -1.0034498219   -0.1753285112
C       -0.6822252434   -0.4739315475   -0.8507578892
C       -1.0817221380    0.1869557708    0.4383626820
C       -0.5246764058    1.0627709665   -0.6959186336
N        0.8253524047    1.4157003593   -0.4776621174
H        2.3497906444    0.2871394321    0.5461199780
H        1.1445288759   -1.9331654096   -0.3480139667
H       -1.2783685997   -0.9708170529   -1.6082959160
H       -2.0655925711    0.3171912782    0.8731593053
H       -1.1605135251    1.7793890846   -1.2057707418
C        0.2096069460   -0.3375581902    1.1149190256
H        0.3394981786   -0.6306374667    2.1501035892
13   
Frame  10 IRC: Energy =  -286.8445510000 ; +0.5428 kcal/mol
C        1.3101238880    0.2973051353    0.2334647010
C        0.6151642229   -1.0073355426   -0.1749042751
C       -0.6853776211   -0.4836718001   -0.8462648991
C       -1.0802680410    0.1859235295    0.4366085851
C       -0.5282752820    1.0751743485   -0.6856468422
N        0.8234907083    1.4151010643   -0.4816776577
H        2.3468083848    0.2861207491    0.5419964591
H        1.1515602914   -1.9372077122   -0.3450340496
H       -1.2760596023   -0.9771952247   -1.6101672288
H       -2.0641322346    0.3159787906    0.8673043455
H       -1.1582781021    1.7934055012   -1.2017863202
C        0.2108732185   -0.3354638298    1.1151105521
H        0.3343701694   -0.6281350091    2.1509966299
13   
Frame  11 IRC: Energy =  -286.8419020000 ; +2.2051 kcal/mol
C        1.3053766791    0.2929996425    0.2278901363
C        0.6197384277   -1.0144546002   -0.1758051106
C       -0.6920245467   -0.5228403939   -0.8273107870
C       -1.0767686688    0.1860812519    0.4231240765
C       -0.5269696951    1.1162344601   -0.6533108589
N        0.8200367078    1.4167717359   -0.4913572810
H        2.3414443445    0.2852229592    0.5377027338
H        1.1596061092   -1.9424244490   -0.3430653534
H       -1.2755806022   -0.9866451870   -1.6183298398
H       -2.0584226839    0.3151399895    0.8576211196
H       -1.1576119642    1.8113553986   -1.2028865060
C        0.2128594651   -0.3307664950    1.1149639113
H        0.3283164274   -0.6266743126    2.1507637593
13   
Frame  12 IRC: Energy =  -286.8383770000 ; +4.4170 kcal/mol
C        1.3004816103    0.2906187110    0.2258570303
C        0.6222663404   -1.0198970796   -0.1780953032
C       -0.6981178110   -0.5683211955   -0.8108844170
C       -1.0724298269    0.1876518204    0.4090878486
C       -0.5204044214    1.1623470550   -0.6228514674
N        0.8138512959    1.4175829398   -0.5008876146
H        2.3377732247    0.2845575036    0.5350992090
H        1.1644814215   -1.9453186425   -0.3425061397
H       -1.2754348218   -0.9928662399   -1.6250822511
H       -2.0538749950    0.3148112415    0.8504849282
H       -1.1568413195    1.8217834449   -1.2046235664
C        0.2136574966   -0.3266481678    1.1145141335
H        0.3245918062   -0.6263013909    2.1498876099
13   
Frame  13 IRC: Energy =  -286.8367460000 ; +5.4405 kcal/mol (Transition State)
C        1.2952391855    0.2905105009    0.2259633819
C        0.6221510871   -1.0257378583   -0.1813578049
C       -0.7041253967   -0.6161550237   -0.7952078630
C       -1.0673887443    0.1914928084    0.3947943350
C       -0.5124406210    1.2078555963   -0.5934328581
N        0.8068818038    1.4180636488   -0.5101485350
H        2.3347850720    0.2838721699    0.5328217478
H        1.1688168321   -1.9472963131   -0.3423719815
H       -1.2749403572   -0.9980492934   -1.6312695559
H       -2.0495538405    0.3142153564    0.8439955846
H       -1.1553807235    1.8300450094   -1.2054474635
C        0.2142468901   -0.3227008709    1.1132348904
H        0.3217088125   -0.6261157309    2.1484261221
13   
Frame  14 IRC: Energy =  -286.8384570000 ; +4.3668 kcal/mol
C        1.2900170005    0.2914163485    0.2265656376
C        0.6209895184   -1.0319714811   -0.1850473327
C       -0.7103686913   -0.6649362278   -0.7800473831
C       -1.0618820509    0.1962032289    0.3805619569
C       -0.5050263754    1.2527280361   -0.5642108051
N        0.8004678123    1.4185139544   -0.5191713541
H        2.3318461135    0.2831725415    0.5305459600
H        1.1732515213   -1.9491656158   -0.3422918401
H       -1.2740256520   -1.0029234578   -1.6370671974
H       -2.0453071845    0.3134820543    0.8375445904
H       -1.1536434555    1.8381301003   -1.2058928377
C        0.2147038018   -0.3186871319    1.1116014869
H        0.3189776417   -0.6259623497    2.1469091184
13   
Frame  15 IRC: Energy =  -286.8425940000 ; +1.7708 kcal/mol
C        1.2845728109    0.2943317989    0.2280237072
C        0.6174003864   -1.0398042394   -0.1889043027
C       -0.7183075268   -0.7152266420   -0.7636394944
C       -1.0558704805    0.2028731741    0.3660019559
C       -0.4993848135    1.2944738390   -0.5359884763
N        0.7957210646    1.4196235854   -0.5271326529
H        2.3287706548    0.2823829330    0.5279091785
H        1.1787056039   -1.9508627231   -0.3421940620
H       -1.2720206774   -1.0077318385   -1.6430510133
H       -2.0403028372    0.3122386506    0.8304778370
H       -1.1509958510    1.8474930528   -1.2048367973
C        0.2153375440   -0.3142794771    1.1087914166
H        0.3163741218   -0.6255121137    2.1445427038
13   
Frame  16 IRC: Energy =  -286.8472390000 ; -1.1440 kcal/mol
C        1.2789979707    0.2975366576    0.2276739210
C        0.6125086926   -1.0500812056   -0.1908445268
C       -0.7311769443   -0.7657635251   -0.7437228609
C       -1.0503220248    0.2085880084    0.3515782448
C       -0.4974302266    1.3306440846   -0.5111274118
N        0.7938759281    1.4228370120   -0.5325550759
H        2.3245554241    0.2812270895    0.5237477751
H        1.1871607116   -1.9529553151   -0.3413938769
H       -1.2670504530   -1.0134321408   -1.6493254020
H       -2.0334872098    0.3108254722    0.8213953224
H       -1.1468934906    1.8631452549   -1.2007138983
C        0.2161766299   -0.3087900459    1.1047317814
H        0.3130849922   -0.6237813467    2.1405560079
13   
Frame  17 IRC: Energy =  -286.8509610000 ; -3.4795 kcal/mol
C        1.2729676626    0.2996416756    0.2264900010
C        0.6070080117   -1.0609917179   -0.1919383492
C       -0.7434344015   -0.8150831829   -0.7232493089
C       -1.0449858470    0.2130617567    0.3376290207
C       -0.4950892915    1.3644847058   -0.4903785209
N        0.7900689540    1.4262750160   -0.5369807586
H        2.3203511885    0.2796804986    0.5184759625
H        1.1965964678   -1.9547108690   -0.3397766127
H       -1.2611015069   -1.0199245434   -1.6556706974
H       -2.0274991672    0.3098159083    0.8124321628
H       -1.1418909705    1.8820947889   -1.1937621086
C        0.2175110199   -0.3034240607    1.1007380815
H        0.3094978802   -0.6209199761    2.1359911279
13   
Frame  18 IRC: Energy =  -286.8534570000 ; -5.0458 kcal/mol
C        1.2677149176    0.3025769498    0.2212742372
C        0.6000959711   -1.0756020115   -0.1896421430
C       -0.7602220208   -0.8575174242   -0.7040572272
C       -1.0426775442    0.2145162606    0.3254270104
C       -0.4971800231    1.3836865705   -0.4753642529
N        0.7912164135    1.4324817016   -0.5375048563
H        2.3143978039    0.2770391018    0.5097184736
H        1.2101646480   -1.9568495932   -0.3362828163
H       -1.2496225988   -1.0294750491   -1.6586117788
H       -2.0201403458    0.3089384758    0.8012721824
H       -1.1363216487    1.9135985603   -1.1817113035
C        0.2175487489   -0.2977728724    1.0946781582
H        0.3050256783   -0.6156206699    2.1308043163
13   
Frame  19 IRC: Energy =  -286.8544020000 ; -5.6388 kcal/mol
C        1.2640501127    0.3012039809    0.2176419052
C        0.5956167157   -1.0825669761   -0.1873257236
C       -0.7620951770   -0.8726596087   -0.6968338178
C       -1.0413522775    0.2127445471    0.3203340830
C       -0.4968022651    1.3908690775   -0.4771177817
N        0.7864251486    1.4347390658   -0.5363137340
H        2.3125264675    0.2747715709    0.5031424141
H        1.2171961970   -1.9571069833   -0.3326249944
H       -1.2440013535   -1.0378300275   -1.6596348209
H       -2.0202535935    0.3093296649    0.7972443844
H       -1.1320835993    1.9336151205   -1.1692067836
C        0.2182554650   -0.2966267372    1.0927456504
H        0.3025181594   -0.6104826947    2.1279492191
13   
Frame  20 IRC: Energy =  -286.8552820000 ; -6.1910 kcal/mol
C        1.2623645232    0.3011995539    0.2138921405
C        0.5937671791   -1.0895197752   -0.1842901982
C       -0.7660253934   -0.8861384807   -0.6936583433
C       -1.0433199453    0.2120284840    0.3142595456
C       -0.4979546422    1.3921848677   -0.4725864667
N        0.7873033020    1.4363913123   -0.5363492738
H        2.3096517838    0.2718151372    0.4948530464
H        1.2246165878   -1.9577966540   -0.3282299711
H       -1.2372306210   -1.0484276072   -1.6595681227
H       -2.0191810143    0.3089249148    0.7918676852
H       -1.1310781035    1.9593800115   -1.1571815255
C        0.2170462045   -0.2950137328    1.0895463646
H        0.3000401393   -0.6050280315    2.1274451192
13   
Frame  21 IRC: Energy =  -286.8559610000 ; -6.6171 kcal/mol
C        1.2592190197    0.2994164943    0.2106947443
C        0.5920177322   -1.0946894696   -0.1822572095
C       -0.7659516429   -0.8955360112   -0.6911777305
C       -1.0429538357    0.2102468875    0.3095545840
C       -0.4988022012    1.3983201658   -0.4745694974
N        0.7839745959    1.4368670317   -0.5363930604
H        2.3092427921    0.2688846244    0.4877503573
H        1.2298350216   -1.9581908801   -0.3233991827
H       -1.2326904319   -1.0595868140   -1.6606289679
H       -2.0203472280    0.3084513002    0.7875699221
H       -1.1280158060    1.9791422979   -1.1420439855
C        0.2167512537   -0.2942502420    1.0884394369
H        0.2977207303   -0.5990753848    2.1264605894
13   
Frame  22 IRC: Energy =  -286.8565730000 ; -7.0011 kcal/mol
C        1.2586887439    0.2988005015    0.2071577755
C        0.5908945187   -1.0988156237   -0.1800403373
C       -0.7667409663   -0.9034492155   -0.6907945256
C       -1.0448076356    0.2097286487    0.3042439081
C       -0.4995188602    1.3991524247   -0.4706249869
N        0.7848985552    1.4374694501   -0.5371046212
H        2.3073653565    0.2657810725    0.4799858300
H        1.2348772294   -1.9593949762   -0.3183374404
H       -1.2278637573   -1.0718152395   -1.6609843289
H       -2.0205414874    0.3070214715    0.7821508511
H       -1.1279709084    2.0017690220   -1.1285312086
C        0.2152917208   -0.2931084011    1.0860768850
H        0.2954274907   -0.5931391350    2.1268021993
13   
Frame  23 IRC: Energy =  -286.8569550000 ; -7.2408 kcal/mol
C        1.2565923773    0.2972658174    0.2049403596
C        0.5904047815   -1.1016975386   -0.1789485481
C       -0.7659477196   -0.9080576700   -0.6904603991
C       -1.0443461111    0.2086886983    0.3011368451
C       -0.4999272021    1.4039322598   -0.4720733113
N        0.7826647657    1.4377270121   -0.5373434586
H        2.3077128980    0.2635803022    0.4752059349
H        1.2371911623   -1.9599413097   -0.3144671047
H       -1.2253108412   -1.0807916685   -1.6615828391
H       -2.0218794768    0.3059745119    0.7786127657
H       -1.1260598555    2.0143604936   -1.1165924059
C        0.2151412710   -0.2924911931    1.0853107612
H        0.2937639505   -0.5885497154    2.1262614003
13   
Frame  24 IRC: Energy =  -286.8574060000 ; -7.5238 kcal/mol
C        1.2565409784    0.2966595084    0.2016005980
C        0.5897728894   -1.1046471123   -0.1774122895
C       -0.7657448611   -0.9136238741   -0.6910173605
C       -1.0458281181    0.2084861375    0.2964301436
C       -0.5003062014    1.4048851554   -0.4684090073
N        0.7837312415    1.4383846216   -0.5379835478
H        2.3064235501    0.2607517485    0.4684891271
H        1.2404052958   -1.9615152645   -0.3094587094
H       -1.2217164347   -1.0929314169   -1.6617663621
H       -2.0224646116    0.3039325243    0.7730448784
H       -1.1263216753    2.0337598028   -1.1031938286
C        0.2138433324   -0.2913915510    1.0831956350
H        0.2916646146   -0.5827502797    2.1264807230
13   
Frame  25 IRC: Energy =  -286.8576390000 ; -7.6701 kcal/mol
C        1.2550743814    0.2955197865    0.2000112773
C        0.5896286281   -1.1064691239   -0.1767966228
C       -0.7649672587   -0.9163709599   -0.6911425860
C       -1.0453103485    0.2077603182    0.2941314467
C       -0.5005157637    1.4087922370   -0.4694944202
N        0.7821163700    1.4387275850   -0.5381006966
H        2.3069263250    0.2591923846    0.4652301824
H        1.2414586548   -1.9621972537   -0.3065054609
H       -1.2202100105   -1.0998804652   -1.6619947749
H       -2.0236111290    0.3028669633    0.7701443200
H       -1.1248983152    2.0422045123   -1.0940081948
C        0.2138397083   -0.2908753192    1.0825563719
H        0.2904687582   -0.5792706649    2.1259691582
13   
Frame  26 IRC: Energy =  -286.8580350000 ; -7.9185 kcal/mol
C        1.2550813353    0.2948637548    0.1964211893
C        0.5892044735   -1.1092804580   -0.1755363815
C       -0.7642036112   -0.9214968275   -0.6921436918
C       -1.0465534054    0.2076550818    0.2891461945
C       -0.5006140873    1.4104138625   -0.4658790084
N        0.7830363808    1.4397342332   -0.5385802144
H        2.3059631947    0.2563384659    0.4584961030
H        1.2438392295   -1.9643049319   -0.3009547641
H       -1.2170809541   -1.1134960682   -1.6619063545
H       -2.0245188627    0.3002427514    0.7636731065
H       -1.1250456150    2.0618351577   -1.0788687102
C        0.2126149758   -0.2896463752    1.0802384722
H        0.2882769460   -0.5728586466    2.1258940594
13   
Frame  27 IRC: Energy =  -286.8581670000 ; -8.0014 kcal/mol
C        1.2540467494    0.2940780702    0.1954080096
C        0.5892051341   -1.1103946759   -0.1752190187
C       -0.7636112236   -0.9230756101   -0.6923543819
C       -1.0460265410    0.2071152755    0.2875715966
C       -0.5008064865    1.4134885826   -0.4668279407
N        0.7818925090    1.4400657626   -0.5385677016
H        2.3064650656    0.2553889185    0.4565049882
H        1.2442172028   -1.9649140632   -0.2989521396
H       -1.2163199571   -1.1183183075   -1.6618994147
H       -2.0253986431    0.2994317937    0.7615876861
H       -1.1239005071    2.0669261732   -1.0724524745
C        0.2127269035   -0.2892905238    1.0797863834
H        0.2875097940   -0.5705013960    2.1254144078
13   
Frame  28 IRC: Energy =  -286.8587560000 ; -8.3710 kcal/mol
C        1.2535515127    0.2926360380    0.1883653066
C        0.5887484265   -1.1157402551   -0.1733522599
C       -0.7613130345   -0.9322092836   -0.6947859839
C       -1.0475850340    0.2067002546    0.2776815480
C       -0.5000991438    1.4190458226   -0.4611514404
N        0.7822867710    1.4426155648   -0.5389277646
H        2.3055663590    0.2502272310    0.4440898212
H        1.2472457284   -1.9697509429   -0.2877099139
H       -1.2115376956   -1.1464920045   -1.6609977922
H       -2.0278233567    0.2937710862    0.7479496838
H       -1.1231864172    2.1035473977   -1.0407256595
C        0.2108225733   -0.2868276538    1.0751295908
H        0.2833233107   -0.5575232550    2.1244348640
13   
Frame  29 IRC: Energy =  -286.8587960000 ; -8.3961 kcal/mol
C        1.2529924153    0.2922384815    0.1881687105
C        0.5888299324   -1.1160423136   -0.1732820950
C       -0.7611000747   -0.9325601055   -0.6948787014
C       -1.0470745629    0.2063895896    0.2771662655
C       -0.5009092993    1.4208482350   -0.4620952647
N        0.7820803532    1.4427662028   -0.5388606247
H        2.3059210203    0.2500300647    0.4436478364
H        1.2471913906   -1.9699503353   -0.2870991749
H       -1.2114563997   -1.1480295296   -1.6609034372
H       -2.0282760009    0.2935414353    0.7473074555
H       -1.1223183955    2.1043310677   -1.0383475163
C        0.2110204112   -0.2867634809    1.0750586744
H        0.2830992099   -0.5567993115    2.1241178718
13   
Frame  30 IRC: Energy =  -286.8591750000 ; -8.6339 kcal/mol
C        1.2514752804    0.2894807843    0.1821232287
C        0.5890331357   -1.1210929751   -0.1723701657
C       -0.7577128139   -0.9402087762   -0.6982828400
C       -1.0470237896    0.2063212980    0.2664967334
C       -0.4994690655    1.4289238437   -0.4588923847
N        0.7801139668    1.4476106489   -0.5387768812
H        2.3062872767    0.2463062584    0.4329044105
H        1.2476010020   -1.9756357466   -0.2755953931
H       -1.2094267658   -1.1786943609   -1.6580493892
H       -2.0317610653    0.2873994139    0.7321135015
H       -1.1187363168    2.1375347809   -1.0028778602
C        0.2104541211   -0.2844412066    1.0701232945
H        0.2791650343   -0.5435039626    2.1210837455
13   
Frame  31 IRC: Energy =  -286.8591970000 ; -8.6477 kcal/mol
C        1.2518873889    0.2900904634    0.1815703587
C        0.5890343866   -1.1210339930   -0.1723725058
C       -0.7577771902   -0.9403648668   -0.6983703143
C       -1.0472469588    0.2060941824    0.2663137616
C       -0.5005102539    1.4289140708   -0.4583656288
N        0.7817154785    1.4471971666   -0.5385232897
H        2.3060466087    0.2463038192    0.4327103998
H        1.2477583022   -1.9759223531   -0.2753750884
H       -1.2094010095   -1.1794461337   -1.6579410772
H       -2.0316477001    0.2872615134    0.7316160070
H       -1.1189911560    2.1385562354   -1.0023940182
C        0.2100406980   -0.2843250934    1.0698433317
H        0.2790914055   -0.5433250112    2.1212880635
13   
Frame  32 IRC: Energy =  -286.8592220000 ; -8.6634 kcal/mol
C        1.2522725455    0.2908145374    0.1804949755
C        0.5890751704   -1.1213005674   -0.1724330969
C       -0.7576831172   -0.9410437757   -0.6986600536
C       -1.0475194039    0.2056717242    0.2654152957
C       -0.5001797198    1.4297889735   -0.4574088464
N        0.7824141132    1.4467756822   -0.5380695685
H        2.3059248359    0.2461237373    0.4319881961
H        1.2479389344   -1.9766742544   -0.2744871240
H       -1.2095552053   -1.1824376395   -1.6574740050
H       -2.0317585271    0.2868044871    0.7300534305
H       -1.1192826724    2.1419069881   -0.9999369370
C        0.2095516747   -0.2840226019    1.0691840681
H        0.2788013716   -0.5424072908    2.1213336655
13   
Frame  33 IRC: Energy =  -286.8592530000 ; -8.6829 kcal/mol
C        1.2518992625    0.2898227096    0.1803394305
C        0.5892321513   -1.1219811765   -0.1724886603
C       -0.7571559694   -0.9420213735   -0.6991373325
C       -1.0473009672    0.2060171565    0.2639381764
C       -0.5002204665    1.4312700143   -0.4570823717
N        0.7820047486    1.4480517903   -0.5382861149
H        2.3061798779    0.2459225655    0.4310071038
H        1.2479049050   -1.9772717244   -0.2732376432
H       -1.2098682790   -1.1867220564   -1.6567682049
H       -2.0323529354    0.2861318777    0.7280672492
H       -1.1184849798    2.1456689170   -0.9955977540
C        0.2098311772   -0.2839261919    1.0686442708
H        0.2783314746   -0.5409625081    2.1206018509
13   
Frame  34 IRC: Energy =  -286.8592690000 ; -8.6929 kcal/mol
C        1.2521904507    0.2905298903    0.1793937325
C        0.5892170574   -1.1221316580   -0.1725253362
C       -0.7570747886   -0.9423496083   -0.6993634599
C       -1.0474973974    0.2058017829    0.2633544617
C       -0.5000191716    1.4315309427   -0.4565606252
N        0.7825488942    1.4477914970   -0.5378073019
H        2.3060033262    0.2457782643    0.4305056099
H        1.2480436485   -1.9777987540   -0.2726425771
H       -1.2099940107   -1.1889151737   -1.6563243214
H       -2.0323684182    0.2857959955    0.7269320314
H       -1.1185221509    2.1480136189   -0.9937146988
C        0.2093559825   -0.2836804413    1.0681131521
H        0.2781165778   -0.5403663564    2.1206393330
13   
Frame  35 IRC: Energy =  -286.8593000000 ; -8.7123 kcal/mol
C        1.2518494708    0.2896437176    0.1791116793
C        0.5893951012   -1.1227977772   -0.1726340977
C       -0.7564827727   -0.9434096060   -0.6999439909
C       -1.0473484955    0.2059551659    0.2615841697
C       -0.4998866628    1.4331346537   -0.4561664184
N        0.7822540879    1.4490773863   -0.5378993494
H        2.3061680394    0.2455393212    0.4293664166
H        1.2479857170   -1.9784507767   -0.2712281044
H       -1.2104671483   -1.1941261466   -1.6553165945
H       -2.0330269318    0.2850580757    0.7245626697
H       -1.1176145478    2.1525612544   -0.9886264592
C        0.2096489690   -0.2834454370    1.0674172073
H        0.2775251737   -0.5387398313    2.1197728719
13   
Frame  36 IRC: Energy =  -286.8593090000 ; -8.7180 kcal/mol
C        1.2521094285    0.2902626136    0.1783899993
C        0.5893866704   -1.1228495970   -0.1726763214
C       -0.7564445783   -0.9436092733   -0.7000842830
C       -1.0474971463    0.2058700195    0.2612662476
C       -0.4998173854    1.4331967679   -0.4557909856
N        0.7827406986    1.4488212335   -0.5375244043
H        2.3060525776    0.2454498325    0.4290920252
H        1.2481117894   -1.9787928802   -0.2708973491
H       -1.2105774972   -1.1955116778   -1.6550120785
H       -2.0329838304    0.2848529758    0.7238400241
H       -1.1176687633    2.1540352299   -0.9875186158
C        0.2091948357   -0.2832963137    1.0670446918
H        0.2773932008   -0.5384289306    2.1198710498
13   
Frame  37 IRC: Energy =  -286.8593540000 ; -8.7462 kcal/mol
C        1.2518101692    0.2894615506    0.1772507343
C        0.5897160512   -1.1238950697   -0.1729813457
C       -0.7554970918   -0.9454377499   -0.7011841844
C       -1.0474101812    0.2059322511    0.2579757523
C       -0.4992429403    1.4360429536   -0.4548346409
N        0.7826161976    1.4506597866   -0.5372219025
H        2.3062059344    0.2449872589    0.4270732361
H        1.2481952966   -1.9801119037   -0.2683826583
H       -1.2117229353   -1.2058205606   -1.6527720867
H       -2.0340342185    0.2835385112    0.7191787851
H       -1.1161341746    2.1629510744   -0.9780746275
C        0.2093043152   -0.2827174174    1.0655201262
H        0.2761935774   -0.5355906853    2.1184528119
13   
Frame  38 IRC: Energy =  -286.8593580000 ; -8.7487 kcal/mol
C        1.2520222086    0.2899084247    0.1768112216
C        0.5897043784   -1.1238819966   -0.1730251752
C       -0.7554670725   -0.9455307448   -0.7012570945
C       -1.0475135920    0.2059532303    0.2578847101
C       -0.4993976574    1.4359114332   -0.4545726966
N        0.7831305339    1.4504699270   -0.5369909731
H        2.3061163804    0.2449604643    0.4269839865
H        1.2482874911   -1.9802647547   -0.2682776182
H       -1.2117943457   -1.2064348381   -1.6526019421
H       -2.0339586699    0.2834511903    0.7188436734
H       -1.1162084893    2.1636297434   -0.9776769121
C        0.2089420192   -0.2826556557    1.0653054026
H        0.2761368152   -0.5355164234    2.1185734177
13   
Frame  39 IRC: Energy =  -286.8593820000 ; -8.7638 kcal/mol
C        1.2521785188    0.2904034341    0.1752140049
C        0.5899811805   -1.1243724622   -0.1734495836
C       -0.7548097676   -0.9467461782   -0.7021208947
C       -1.0475459933    0.2060051445    0.2555312202
C       -0.4990821194    1.4379093787   -0.4536865988
N        0.7838793682    1.4512654324   -0.5361386470
H        2.3061313601    0.2446440891    0.4257634231
H        1.2486217820   -1.9812572572   -0.2667342020
H       -1.2131632232   -1.2149101780   -1.6503168362
H       -2.0345117610    0.2826098306    0.7151071739
H       -1.1150519513    2.1704455650   -0.9707923711
C        0.2082700142   -0.2821749579    1.0638695660
H        0.2751025921   -0.5338218408    2.1177537455
