13   
Frame  39 IRC: Energy =  -286.8593820000 ; -8.7638 kcal/mol
C        1.2521785188    0.2904034341    0.1752140049
C        0.5899811805   -1.1243724622   -0.1734495836
C       -0.7548097676   -0.9467461782   -0.7021208947
C       -1.0475459933    0.2060051445    0.2555312202
C       -0.4990821194    1.4379093787   -0.4536865988
N        0.7838793682    1.4512654324   -0.5361386470
H        2.3061313601    0.2446440891    0.4257634231
H        1.2486217820   -1.9812572572   -0.2667342020
H       -1.2131632232   -1.2149101780   -1.6503168362
H       -2.0345117610    0.2826098306    0.7151071739
H       -1.1150519513    2.1704455650   -0.9707923711
C        0.2082700142   -0.2821749579    1.0638695660
H        0.2751025921   -0.5338218408    2.1177537455
