13   
Frame   0 IRC: Energy =  -286.8454160000 ; +0.0000 kcal/mol
C        1.3123784607    0.3056363587    0.2477164281
C        0.6118983208   -0.9997173330   -0.1765875210
C       -0.6818624658   -0.4706159523   -0.8476368617
C       -1.0814637460    0.1896641419    0.4443562748
C       -0.5215585606    1.0571232286   -0.6996129707
N        0.8252320260    1.4202971889   -0.4713984287
H        2.3476170808    0.2963434849    0.5677401874
H        1.1305173416   -1.9331386426   -0.3617493947
H       -1.2832341542   -0.9489927669   -1.6116467112
H       -2.0598661655    0.3296655997    0.8889198490
H       -1.1656267109    1.7402466902   -1.2405097431
C        0.2119917484   -0.3389683024    1.1157089676
H        0.3539768249   -0.6475436955    2.1446999240
13   
Frame   1 IRC: Energy =  -286.8393863937 ; +3.7836 kcal/mol (Transition State)
C        1.3018833271    0.2913004975    0.2264392160
C        0.6215424654   -1.0183386102   -0.1774395001
C       -0.6963729875   -0.5552976390   -0.8155881546
C       -1.0736722666    0.1872020837    0.4131071623
C       -0.5222844061    1.1491425827   -0.6315736005
N        0.8156225061    1.4173506493   -0.4981585766
H        2.3388244603    0.2847480587    0.5358447357
H        1.1630853620   -1.9444898820   -0.3426662721
H       -1.2754765664   -0.9910848238   -1.6231486790
H       -2.0551772386    0.3149053794    0.8525283968
H       -1.1570619958    1.8187973443   -1.2041261543
C        0.2134289780   -0.3278274625    1.1146429286
H        0.3256583620   -0.6264081781    2.1501384977
13   
Frame   2 IRC: Energy =  -286.8415584332 ; +2.4207 kcal/mol
C        1.2859355912    0.2936020083    0.2276587257
C        0.6182988118   -1.0378435567   -0.1879388325
C       -0.7163202910   -0.7026380311   -0.7677466892
C       -1.0573752866    0.2012035648    0.3696465906
C       -0.5007969997    1.2840241007   -0.5430530416
N        0.7969092624    1.4193458245   -0.5251397942
H        2.3295404984    0.2825805865    0.5285692132
H        1.1773403472   -1.9504379061   -0.3422185376
H       -1.2725225592   -1.0065282128   -1.6415531547
H       -2.0415555169    0.3125498973    0.8322467746
H       -1.1516585949    1.8451493344   -1.2051011435
C        0.2151789068   -0.3153827938    1.1094948286
H        0.3170258304   -0.6256248160    2.1451350606
13   
Frame   3 IRC: Energy =  -286.8531103807 ; -4.8283 kcal/mol
C        1.2684443658    0.3021693286    0.2219985499
C        0.6010558455   -1.0735730814   -0.1899610170
C       -0.7578907257   -0.8516245851   -0.7067224298
C       -1.0429980980    0.2143142738    0.3271215024
C       -0.4968896834    1.3810200094   -0.4774492829
N        0.7910570659    1.4316197798   -0.5374320749
H        2.3152245499    0.2774059124    0.5109346252
H        1.2082804361   -1.9565525888   -0.3367679995
H       -1.2512166736   -1.0281487713   -1.6582033511
H       -2.0211622646    0.3090603248    0.8028219679
H       -1.1370950599    1.9092236345   -1.1833847977
C        0.2175435095   -0.2985576524    1.0955196992
H        0.3056467325   -0.6163565840    2.1315246084
13   
Frame   4 IRC: Energy =  -286.8577810846 ; -7.7592 kcal/mol
C        1.2550768764    0.2952844026    0.1987231554
C        0.5894764416   -1.1074778293   -0.1763444488
C       -0.7646932624   -0.9182101188   -0.6915017823
C       -1.0457563567    0.2077225594    0.2923427406
C       -0.5005510422    1.4093740755   -0.4681972122
N        0.7824464694    1.4390887699   -0.5382727474
H        2.3065807543    0.2581683999    0.4628139979
H        1.2423128039   -1.9629534877   -0.3045138735
H       -1.2190873065   -1.1047657371   -1.6619630497
H       -2.0239368234    0.3019253973    0.7678224516
H       -1.1249511663    2.0492479786   -1.0885761549
C        0.2134002749   -0.2904343747    1.0817247105
H        0.2896823370   -0.5769700358    2.1259422127
13   
Frame   5 IRC: Energy =  -286.8593820000 ; -8.7638 kcal/mol
C        1.2521785188    0.2904034341    0.1752140049
C        0.5899811805   -1.1243724622   -0.1734495836
C       -0.7548097676   -0.9467461782   -0.7021208947
C       -1.0475459933    0.2060051445    0.2555312202
C       -0.4990821194    1.4379093787   -0.4536865988
N        0.7838793682    1.4512654324   -0.5361386470
H        2.3061313601    0.2446440891    0.4257634231
H        1.2486217820   -1.9812572572   -0.2667342020
H       -1.2131632232   -1.2149101780   -1.6503168362
H       -2.0345117610    0.2826098306    0.7151071739
H       -1.1150519513    2.1704455650   -0.9707923711
C        0.2082700142   -0.2821749579    1.0638695660
H        0.2751025921   -0.5338218408    2.1177537455
