13   
Frame   0 IRC: Energy =  -286.8792600000 ; +0.0000 kcal/mol
C        1.5714992977    0.4699354594   -0.0191522498
C        0.8306312997   -0.8057049063    0.1290701805
C       -0.4909292986   -0.9710269034   -0.6014339603
C       -1.1230461811    0.3026544247   -0.0581226763
C       -0.3858008942    1.5717509268   -0.2680501095
N        0.9453517097    1.6276284484   -0.2287936804
H        2.6555285026    0.4878354686    0.0658372362
H        1.4239405009   -1.7079435178    0.2649047123
H       -0.8701056330   -1.7493097681   -1.2479479139
H       -2.2099494708    0.3541980410   -0.0754913401
H       -0.9259538775    2.4906061185   -0.4842228452
C       -0.5119731835   -0.7554550832    0.8444328917
H       -0.9091927723   -1.3151687085    1.6789697544
13   
Frame   1 IRC: Energy =  -286.8786023940 ; +0.4127 kcal/mol
C        1.5703831819    0.4724610284   -0.0024225209
C        0.8317752893   -0.8091488982    0.0959422847
C       -0.5047624579   -0.9606500617   -0.6039494458
C       -1.1225305868    0.3082588733   -0.0270522743
C       -0.3849288263    1.5689034416   -0.2856868677
N        0.9447273296    1.6269046185   -0.2285467149
H        2.6430304595    0.5017658766    0.1758805176
H        1.4247230310   -1.7157368121    0.1982388232
H       -0.9042459263   -1.7295634262   -1.2493678122
H       -2.2089307466    0.3647621846   -0.0112415604
H       -0.9210111834    2.4649972154   -0.5889008458
C       -0.4951061210   -0.7610955385    0.8455302030
H       -0.8731234429   -1.3318585018    1.6815762136
13   
Frame   2 IRC: Energy =  -286.8772410016 ; +1.2669 kcal/mol
C        1.5673569725    0.4741814265    0.0100638913
C        0.8330685970   -0.8122760015    0.0562365590
C       -0.5195032339   -0.9531114246   -0.6089883085
C       -1.1199792712    0.3131273753   -0.0052427354
C       -0.3836891229    1.5665256276   -0.3074586083
N        0.9440011824    1.6258440556   -0.2280950076
H        2.6167843903    0.5121868897    0.3009853444
H        1.4255010415   -1.7225059724    0.1242967650
H       -0.9424524960   -1.7203046065   -1.2410356528
H       -2.2047323027    0.3746700234    0.0444689904
H       -0.9149360958    2.4398317229   -0.6756672149
C       -0.4740537342   -0.7619837412    0.8428917782
H       -0.8273659271   -1.3361853747    1.6875441993
13   
Frame   3 IRC: Energy =  -286.8748841934 ; +2.7459 kcal/mol
C        1.5646517504    0.4749032163    0.0162380951
C        0.8342145795   -0.8161773148    0.0101536914
C       -0.5338862912   -0.9509467453   -0.6161898646
C       -1.1147041271    0.3166615747    0.0014919424
C       -0.3803118808    1.5653433037   -0.3321267867
N        0.9419008421    1.6262038739   -0.2275704190
H        2.5678797903    0.5134518845    0.4352784258
H        1.4277883745   -1.7274201683    0.0473655759
H       -0.9812943443   -1.7297540925   -1.2178272342
H       -2.1973392918    0.3828348891    0.0830134221
H       -0.9090512942    2.4277477280   -0.7316468565
C       -0.4493859813   -0.7574912043    0.8359818011
H       -0.7704621260   -1.3253569451    1.6958382074
13   
Frame   4 IRC: Energy =  -286.8712979980 ; +4.9962 kcal/mol
C        1.5594150018    0.4749792272    0.0202542064
C        0.8362922960   -0.8191473154   -0.0385172546
C       -0.5467700982   -0.9524211372   -0.6252696900
C       -1.1084196718    0.3191300763   -0.0022500701
C       -0.3769090970    1.5677728345   -0.3556575358
N        0.9398647308    1.6292734083   -0.2216797100
H        2.5018782157    0.5030944144    0.5642081942
H        1.4317011368   -1.7297209666   -0.0277956956
H       -1.0167743199   -1.7530752442   -1.1801063989
H       -2.1882749511    0.3877949697    0.1071638554
H       -0.9015795063    2.4268915731   -0.7673441493
C       -0.4222251322   -0.7481552637    0.8250416713
H       -0.7081986046   -1.3064165764    1.7019525770
13   
Frame   5 IRC: Energy =  -286.8662056097 ; +8.1918 kcal/mol
C        1.5519059005    0.4756541824    0.0260455101
C        0.8405144376   -0.8206015392   -0.0893868772
C       -0.5567709969   -0.9543365589   -0.6391632716
C       -1.1014332143    0.3220009403   -0.0138276505
C       -0.3749079998    1.5750893644   -0.3753523764
N        0.9370108946    1.6351037740   -0.2050837743
H        2.4255063079    0.4783068760    0.6789310224
H        1.4338294264   -1.7319647798   -0.0968579373
H       -1.0467665266   -1.7839178193   -1.1258355649
H       -2.1784718739    0.3838964831    0.1217570897
H       -0.8944622466    2.4337049805   -0.7915506602
C       -0.3921013366   -0.7324006919    0.8106902532
H       -0.6438527721   -1.2805352115    1.6996342371
13   
Frame   6 IRC: Energy =  -286.8591112231 ; +12.6436 kcal/mol
C        1.5391164986    0.4734213555    0.0423979241
C        0.8465778473   -0.8259519673   -0.1420071621
C       -0.5541382157   -0.9434548561   -0.6600995955
C       -1.0929408819    0.3273764596   -0.0304786692
C       -0.3764008015    1.5868352204   -0.3906861220
N        0.9274109100    1.6400323462   -0.1774441275
H        2.3495209994    0.4364099754    0.7698025658
H        1.4304970128   -1.7464250656   -0.1525313754
H       -1.0674574139   -1.8084074393   -1.0533894586
H       -2.1656892442    0.3649498941    0.1332597700
H       -0.9002483130    2.4449120043   -0.8112721110
C       -0.3552343804   -0.7038691479    0.7871886537
H       -0.5810140174   -1.2458287795    1.6852597075
13   
Frame   7 IRC: Energy =  -286.8479966464 ; +19.6181 kcal/mol
C        1.4917562740    0.4573284362    0.0906778608
C        0.8530525765   -0.8480839936   -0.1903598212
C       -0.5380416895   -0.9138159345   -0.7108660318
C       -1.0816099598    0.3333761670   -0.0442130271
C       -0.3907407795    1.5984755936   -0.4006349257
N        0.9120755945    1.6295905816   -0.1600811152
H        2.2933492332    0.3950377975    0.8218493375
H        1.4308215897   -1.7771406654   -0.1863909466
H       -1.0709501820   -1.8089128250   -0.9793679505
H       -2.1500758278    0.3435231175    0.1419238364
H       -0.9168940354    2.4509864834   -0.8245106433
C       -0.3049226462   -0.6558716916    0.7757631900
H       -0.5278201478   -1.2044930669    1.6662102367
13   
Frame   8 IRC: Energy =  -286.8277803558 ; +32.3040 kcal/mol
C        1.4179869814    0.4331344801    0.1661751035
C        0.8406760856   -0.8836890324   -0.2218880014
C       -0.5219616964   -0.8856204360   -0.8056716157
C       -1.0734014770    0.3306676942   -0.0482916243
C       -0.4040901550    1.5987181629   -0.3979242071
N        0.9007347301    1.6175252782   -0.1704557977
H        2.2677233763    0.3771012364    0.8374861473
H        1.4357800378   -1.7977019295   -0.1978765672
H       -1.0718106961   -1.8086500171   -0.9461677149
H       -2.1435967518    0.3353573156    0.1435380130
H       -0.9224268665    2.4471764934   -0.8271647082
C       -0.2286666851   -0.5888332766    0.8033148329
H       -0.4969468833   -1.1751859692    1.6649261400
13   
Frame   9 IRC: Energy =  -286.8151506568 ; +40.2293 kcal/mol (Transition State)
C        1.3493161332    0.3995728587    0.2455258711
C        0.8168779824   -0.9170920895   -0.2407208050
C       -0.5154240982   -0.8686217418   -0.9107216029
C       -1.0710364073    0.3164686620   -0.0470707384
C       -0.4032116096    1.5922203924   -0.3934985306
N        0.8843665024    1.6175265123   -0.1903086604
H        2.2557795940    0.3703140312    0.8424443543
H        1.4383762595   -1.8047965103   -0.2032770794
H       -1.0725383751   -1.8056957242   -0.9363109266
H       -2.1423543375    0.3318416642    0.1430327348
H       -0.9212964099    2.4424454235   -0.8276138633
C       -0.1463216724   -0.5219545582    0.8457944300
H       -0.4725335616   -1.1522289205    1.6727248164
13   
Frame  10 IRC: Energy =  -286.8317207536 ; +29.8314 kcal/mol
C        1.2778497253    0.3577578959    0.3303310281
C        0.7908868512   -0.9404476690   -0.2660424171
C       -0.5134650505   -0.8517764829   -0.9932068359
C       -1.0643822946    0.2819372038   -0.0527261291
C       -0.4006566570    1.5859303984   -0.3945794922
N        0.8705650042    1.6155041658   -0.2032400294
H        2.2390509653    0.3610275895    0.8460338897
H        1.4385380889   -1.8082558006   -0.2116301788
H       -1.0721499009   -1.7932754329   -0.9424704901
H       -2.1378337296    0.3246004912    0.1430670325
H       -0.9201725053    2.4379622169   -0.8296670904
C       -0.0715449654   -0.4493523471    0.8918327671
H       -0.4366855317   -1.1216122291    1.6822979459
13   
Frame  11 IRC: Energy =  -286.8444097975 ; +21.8689 kcal/mol
C        1.2164250126    0.3316524681    0.4029496814
C        0.7753916981   -0.9523689352   -0.2908055776
C       -0.5103446158   -0.8400311158   -1.0311804162
C       -1.0552463547    0.2580637520   -0.0668559937
C       -0.4038119936    1.5759814049   -0.4028143469
N        0.8587493289    1.6043508519   -0.1897063517
H        2.1998774621    0.3296623520    0.8659906142
H        1.4330149555   -1.8137073475   -0.2348672454
H       -1.0791824289   -1.7728795914   -0.9854737276
H       -2.1241558439    0.2989196692    0.1437727548
H       -0.9211237023    2.4276096706   -0.8400851508
C       -0.0299692933   -0.3913677566    0.9157041055
H       -0.3596242248   -1.0558854221    1.7133716541
13   
Frame  12 IRC: Energy =  -286.8507675514 ; +17.8793 kcal/mol
C        1.2002717292    0.3275312584    0.4164438946
C        0.7649603856   -0.9595760641   -0.2914499043
C       -0.5059884861   -0.8281550461   -1.0468391271
C       -1.0562478184    0.2452802320   -0.0675701192
C       -0.4076340182    1.5713007588   -0.4029359773
N        0.8526921400    1.6058523842   -0.1726738360
H        2.1645159999    0.2898889654    0.9156726339
H        1.4265750082   -1.8187168822   -0.2695850627
H       -1.0920897045   -1.7492114819   -1.0761459814
H       -2.1240880439    0.2630840715    0.1419816837
H       -0.9216644468    2.4105262044   -0.8647444660
C       -0.0243117540   -0.3842205214    0.9204286152
H       -0.2769909911   -0.9735838790    1.7974176465
13   
Frame  13 IRC: Energy =  -286.8543657705 ; +15.6214 kcal/mol
C        1.1939233900    0.3214587106    0.4259901397
C        0.7526524108   -0.9744937518   -0.2780777345
C       -0.4994775340   -0.8137313996   -1.0509029463
C       -1.0586711946    0.2319369028   -0.0548108163
C       -0.4120068761    1.5597632288   -0.3992952263
N        0.8481707075    1.5967655975   -0.1716912501
H        2.1434511316    0.2719962549    0.9467182572
H        1.4237296328   -1.8261007946   -0.2952716630
H       -1.0953249101   -1.7133410423   -1.2004374328
H       -2.1289835238    0.2338284389    0.1460343487
H       -0.9241019693    2.3867229363   -0.8892464355
C       -0.0216495856   -0.3853594318    0.9410869210
H       -0.2217116793   -0.8894456496    1.8799038383
13   
Frame  14 IRC: Energy =  -286.8561906711 ; +14.4762 kcal/mol
C        1.1909425798    0.3168247392    0.4324133072
C        0.7389382297   -0.9925640771   -0.2542730053
C       -0.4938467673   -0.8042084906   -1.0430871126
C       -1.0610622698    0.2176855114   -0.0352427209
C       -0.4179649677    1.5454113519   -0.4000433160
N        0.8439382777    1.5836569320   -0.1811224150
H        2.1412317494    0.2678091779    0.9520925550
H        1.4152030808   -1.8395087293   -0.2903810540
H       -1.0872733428   -1.6615696693   -1.3475431368
H       -2.1311579411    0.2105738792    0.1673423858
H       -0.9321176719    2.3576230460   -0.9112569694
C       -0.0167039609   -0.3809172606    0.9672201048
H       -0.1901269956   -0.8208164107    1.9438813773
13   
Frame  15 IRC: Energy =  -286.8569100000 ; +14.0248 kcal/mol
C        1.1909420969    0.3158280614    0.4358416359
C        0.7239979418   -1.0113468543   -0.2272494047
C       -0.4947228323   -0.8051748399   -1.0238608301
C       -1.0636470897    0.2051529878   -0.0143736678
C       -0.4248352283    1.5303154158   -0.4058552545
N        0.8399893422    1.5707827307   -0.1965287622
H        2.1488000683    0.2704696361    0.9421780956
H        1.4012792655   -1.8574149507   -0.2618611199
H       -1.0685429287   -1.5944152477   -1.4944399934
H       -2.1321329853    0.1953191014    0.1992017111
H       -0.9427831000    2.3284006472   -0.9333011357
C       -0.0094163583   -0.3726546841    0.9925012636
H       -0.1689281921   -0.7752620037    1.9877474619
