13   
From qcts1.out: Frame 16 / 16, Energy=    -286.7917376271
C        1.3586352266    0.4036884407    0.2240864355
C        0.8089703589   -0.9180285992   -0.2332450540
C       -0.5244386742   -0.8717108452   -0.9057546372
C       -1.0747660992    0.3169841336   -0.0428655972
C       -0.4047779643    1.5870781442   -0.3957180554
N        0.8856618472    1.6126266754   -0.1978300457
H        2.2611051455    0.3712494226    0.8274358536
H        1.4263197578   -1.8096138920   -0.1941284227
H       -1.0813423222   -1.8088943857   -0.9204125873
H       -2.1460531454    0.3331709506    0.1491896865
H       -0.9225507945    2.4349849892   -0.8355683221
C       -0.1611721598   -0.5332232190    0.8429671317
H       -0.4865033758   -1.1586753625    1.6725487411
