13   
From optimize.out: Frame 1 / 17, Energy=    -286.6463204927
C        1.4339930286    0.0862246779   -0.6682751447
C        0.5394519822   -1.1140444095   -0.9877659915
C       -0.9121406179   -0.6520508850   -1.9883266982
C       -1.3176614904   -0.1108016611   -0.3838589979
C       -0.7420669267    0.7475291125   -1.4867995370
N        0.8717429580    1.2365050374   -1.4028428874
H        2.3060070241    0.0962589072    0.0477922370
H        0.6672304818   -2.2179082920   -0.9974670905
H       -1.5374807660   -0.7133541782   -3.0060700739
H       -2.3601456858   -0.0114029987   -0.0891949075
H       -1.3410447544    1.6877870597   -1.6306169802
C        0.0994533368   -0.3146323037    0.3065191176
H        0.5591577552   -0.4683919271    1.2250823617
13   
From optimize.out: Frame 2 / 17, Energy=    -286.6872270487
C        1.3905898705    0.0926606729   -0.6858263768
C        0.5292159101   -1.1141608438   -0.9888207660
C       -0.8875266426   -0.6432522986   -1.9503727660
C       -1.2988192818   -0.0973413280   -0.3824448787
C       -0.7311553780    0.7656560061   -1.4865785260
N        0.8382750097    1.2412077929   -1.4014515480
H        2.2703625375    0.1062430944   -0.0044933843
H        0.6724507308   -2.2075888678   -1.0023875822
H       -1.4737216936   -0.7246635100   -2.9474903511
H       -2.3366992427    0.0088203170   -0.0803580170
H       -1.3252625343    1.6891610701   -1.6629663137
C        0.0851502936   -0.3423749665    0.2972277904
H        0.5336367461   -0.5226489991    1.2341381268
13   
From optimize.out: Frame 3 / 17, Energy=    -286.7220306615
C        1.3494636485    0.0979721602   -0.7013962616
C        0.5151501941   -1.1151819866   -0.9928838499
C       -0.8624761731   -0.6350389407   -1.9071629835
C       -1.2814192364   -0.0861957298   -0.3852437085
C       -0.7166248598    0.7873534618   -1.4827074824
N        0.8013518617    1.2388418779   -1.3946333453
H        2.2395582166    0.1180862815   -0.0519670262
H        0.6735026765   -2.2006576275   -1.0120378598
H       -1.4103465387   -0.7412611684   -2.8873291531
H       -2.3156034454    0.0251918165   -0.0762590837
H       -1.3086534193    1.6944377874   -1.6890880531
C        0.0740941588   -0.3662194383    0.2848407064
H        0.5084992420   -0.5656103547    1.2340435081
13   
From optimize.out: Frame 4 / 17, Energy=    -286.7496360909
C        1.3150422141    0.1042710107   -0.7103307066
C        0.5034752107   -1.1183933888   -0.9975049816
C       -0.8418482864   -0.6283599453   -1.8640068300
C       -1.2677472796   -0.0714917222   -0.3892281815
C       -0.7036834466    0.8122634469   -1.4810300816
N        0.7667771349    1.2393424177   -1.3842855810
H        2.2189374257    0.1307977869   -0.0928610190
H        0.6791718813   -2.1972500201   -1.0256597612
H       -1.3599414987   -0.7640334459   -2.8349035231
H       -2.2984812562    0.0461530160   -0.0732175128
H       -1.2980300170    1.7016875412   -1.7205313617
C        0.0675399075   -0.3918836260    0.2759724550
H        0.4852843357   -0.6113849316    1.2357624926
13   
From optimize.out: Frame 5 / 17, Energy=    -286.7710994604
C        1.2869138844    0.1105611429   -0.7121504997
C        0.4948367412   -1.1231133180   -1.0030850670
C       -0.8268081662   -0.6221536903   -1.8235254406
C       -1.2568446812   -0.0538560523   -0.3938902863
C       -0.6924025875    0.8385776004   -1.4813872881
N        0.7394688755    1.2430744508   -1.3716767672
H        2.2060497440    0.1424875907   -0.1267440342
H        0.6914964605   -2.1954169971   -1.0436833038
H       -1.3234426967   -0.7909289765   -2.7877261276
H       -2.2836726852    0.0698589811   -0.0685295835
H       -1.2933525296    1.7074894316   -1.7564963825
C        0.0638046694   -0.4178748665    0.2687543373
H        0.4604492969   -0.6569871573    1.2383158505
13   
From optimize.out: Frame 6 / 17, Energy=    -286.7873406106
C        1.2642069450    0.1163165472   -0.7067518609
C        0.4895048464   -1.1282725678   -1.0102443912
C       -0.8178161719   -0.6158984979   -1.7884209592
C       -1.2479211353   -0.0342919055   -0.3981899485
C       -0.6824788527    0.8642299690   -1.4840152638
N        0.7218419197    1.2495635589   -1.3576406156
H        2.1990435403    0.1514184426   -0.1529714606
H        0.7117288525   -2.1931139602   -1.0666434269
H       -1.3019145089   -0.8199863447   -2.7444014419
H       -2.2699709985    0.0943669634   -0.0600615000
H       -1.2933054998    1.7095612731   -1.7963526988
C        0.0613907453   -0.4425728717    0.2624168603
H        0.4321866435   -0.6996024668    1.2414521146
13   
From optimize.out: Frame 7 / 17, Energy=    -286.7993971421
C        1.2452258159    0.1212801948   -0.6951630973
C        0.4865744439   -1.1327321075   -1.0189478713
C       -0.8136085537   -0.6092097381   -1.7604914304
C       -1.2403866470   -0.0144643773   -0.4012423664
C       -0.6729389965    0.8872584278   -1.4880767043
N        0.7126901129    1.2574600475   -1.3427433066
H        2.1958998569    0.1563472224   -0.1728864432
H        0.7390458126   -2.1883268935   -1.0939610276
H       -1.2945465414   -0.8494155167   -2.7051381750
H       -2.2567607720    0.1172888580   -0.0473180055
H       -1.2946473276    1.7068587021   -1.8382188814
C        0.0593647546   -0.4641380323    0.2570558159
H        0.4005843669   -0.7364886478    1.2453069008
13   
From optimize.out: Frame 8 / 17, Energy=    -286.8082515613
C        1.2287890231    0.1253857020   -0.6788564060
C        0.4848142843   -1.1355993386   -1.0284114365
C       -0.8123857116   -0.6017739390   -1.7402316476
C       -1.2340687871    0.0041206238   -0.4029584359
C       -0.6635760228    0.9067211759   -1.4926961232
N        0.7091559563    1.2654972270   -1.3274061303
H        2.1954055242    0.1566634118   -0.1886607892
H        0.7711918448   -2.1797094070   -1.1238802967
H       -1.2986976501   -0.8780059223   -2.6697191440
H       -2.2441225854    0.1369626664   -0.0315181093
H       -1.2948829690    1.6999578387   -1.8803807512
C        0.0577070100   -0.4814828605    0.2530822827
H        0.3671664086   -0.7670190387    1.2498123947
13   
From optimize.out: Frame 9 / 17, Energy=    -286.8146823454
C        1.2144645770    0.1288537182   -0.6594444595
C        0.4831660410   -1.1364360963   -1.0376580563
C       -0.8126025418   -0.5935187064   -1.7268313289
C       -1.2289205655    0.0202837686   -0.4038990497
C       -0.6547406671    0.9225834496   -1.4973170710
N        0.7090187520    1.2730963834   -1.3122214367
H        2.1968293698    0.1527485301   -0.2021860835
H        0.8055750416   -2.1668333439   -1.1542844847
H       -1.3112810121   -0.9054956884   -2.6370447148
H       -2.2323637553    0.1527273304   -0.0146809062
H       -1.2927652060    1.6904487977   -1.9212510409
C        0.0567257476   -0.4942832106    0.2505960020
H        0.3333905444   -0.7924567929    1.2543980377
13   
From optimize.out: Frame 10 / 17, Energy=    -286.8192342468
C        1.2022309530    0.1320651145   -0.6385593939
C        0.4811231425   -1.1354903311   -1.0459051537
C       -0.8132982038   -0.5847349984   -1.7190391559
C       -1.2248917932    0.0334015174   -0.4047004185
C       -0.6468525075    0.9351187796   -1.5018031381
N        0.7107470024    1.2800285927   -1.2979734586
H        2.1994923964    0.1458597351   -0.2144514452
H        0.8405703000   -2.1501324026   -1.1835509243
H       -1.3296854924   -0.9321812379   -2.6057856587
H       -2.2216991414    0.1653999320    0.0013945515
H       -1.2879780277    1.6802298170   -1.9593086538
C        0.0566541639   -0.5029584056    0.2494763734
H        0.3000835332   -0.8148879733    1.2583818833
13   
From optimize.out: Frame 11 / 17, Energy=    -286.8222762528
C        1.1921635252    0.1353366838   -0.6178543780
C        0.4784576728   -1.1334990310   -1.0525974170
C       -0.8139345262   -0.5760248038   -1.7155830876
C       -1.2218313539    0.0433278621   -0.4057475559
C       -0.6400962486    0.9445916528   -1.5062252243
N        0.7132590398    1.2861155465   -1.2853539966
H        2.2027124430    0.1373922322   -0.2257517554
H        0.8756194398   -2.1303108057   -1.2109824843
H       -1.3517497743   -0.9583500153   -2.5748942063
H       -2.2121185550    0.1766590779    0.0155460070
H       -1.2808615503    1.6708684026   -1.9932524763
C        0.0574755122   -0.5084131173    0.2495241977
H        0.2674007010   -0.8359755454    1.2613477843
13   
From optimize.out: Frame 12 / 17, Energy=    -286.8240733316
C        1.1843451973    0.1387662958   -0.5988072407
C        0.4750137003   -1.1314787914   -1.0572342305
C       -0.8143968764   -0.5682660148   -1.7152318783
C       -1.2195178974    0.0503750397   -0.4071061971
C       -0.6345118309    0.9510967390   -1.5107988578
N        0.7158955544    1.2910606706   -1.2747957786
H        2.2059871010    0.1282302937   -0.2359497373
H        0.9112517943   -2.1077477035   -1.2368779022
H       -1.3758612591   -0.9836700748   -2.5439412074
H       -2.2034678372    0.1882819625    0.0272551499
H       -1.2722166540    1.6632373297   -2.0222570556
C        0.0589322235   -0.5119442524    0.2505372124
H        0.2350431096   -0.8562233547    1.2633831305
13   
From optimize.out: Frame 13 / 17, Energy=    -286.8248426888
C        1.1785615285    0.1420118709   -0.5827261543
C        0.4701841915   -1.1310276762   -1.0591301054
C       -0.8147113519   -0.5625531182   -1.7167392329
C       -1.2176500918    0.0549792093   -0.4085860177
C       -0.6300041256    0.9544584282   -1.5155603938
N        0.7181302380    1.2941381384   -1.2663293953
H        2.2089034120    0.1179803187   -0.2453065421
H        0.9490505431   -2.0821824676   -1.2623661165
H       -1.4008289684   -1.0060040655   -2.5138080093
H       -2.1956896311    0.2005835696    0.0362861116
H       -1.2627944654    1.6575444385   -2.0456881331
C        0.0606683904   -0.5150725749    0.2523422584
H        0.2026766562   -0.8731379317    1.2657871380
13   
From optimize.out: Frame 14 / 17, Energy=    -286.8249337534
C        1.1775882444    0.1426840225   -0.5798434459
C        0.4672023897   -1.1331667571   -1.0578913288
C       -0.8148666090   -0.5626692770   -1.7175743448
C       -1.2168916526    0.0558127944   -0.4089035455
C       -0.6292403129    0.9537264592   -1.5172127552
N        0.7185742669    1.2935977585   -1.2647337172
H        2.2095402636    0.1128804911   -0.2478118149
H        0.9644603168   -2.0727986660   -1.2707096627
H       -1.4098925985   -1.0087181689   -2.5066742715
H       -2.1939528277    0.2032460650    0.0373835630
H       -1.2600157640    1.6569979539   -2.0496331579
C        0.0613454276   -0.5168050751    0.2531093708
H        0.1926451812   -0.8730694613    1.2686705182
13   
From optimize.out: Frame 15 / 17, Energy=    -286.8249579261
C        1.1778730106    0.1431917287   -0.5804409673
C        0.4648938693   -1.1350960353   -1.0566773999
C       -0.8142899082   -0.5634445737   -1.7184234884
C       -1.2160082568    0.0557129306   -0.4094806877
C       -0.6291893399    0.9530238715   -1.5177497893
N        0.7191363541    1.2931188945   -1.2648379343
H        2.2096419830    0.1094324035   -0.2483374671
H        0.9702244138   -2.0698915248   -1.2720776660
H       -1.4139372955   -1.0076039843   -2.5049989086
H       -2.1939720974    0.2010443333    0.0354692106
H       -1.2596950732    1.6583457686   -2.0477375938
C        0.0620394831   -0.5164488665    0.2531610352
H        0.1897791825   -0.8696668068    1.2703070641
13   
From optimize.out: Frame 16 / 17, Energy=    -286.8249620093
C        1.1781194371    0.1438138529   -0.5805023285
C        0.4648703242   -1.1362213285   -1.0563698774
C       -0.8150829337   -0.5649445846   -1.7187934257
C       -1.2158271827    0.0560957499   -0.4093455683
C       -0.6296268350    0.9516308060   -1.5180004366
N        0.7192697387    1.2921216576   -1.2658643071
H        2.2095396011    0.1091619996   -0.2471906310
H        0.9729851624   -2.0696319552   -1.2714488022
H       -1.4165689067   -1.0049579254   -2.5064388275
H       -2.1944239214    0.2010565260    0.0343811961
H       -1.2595699527    1.6588720106   -2.0461668854
C        0.0624720280   -0.5172245840    0.2530035251
H        0.1903397661   -0.8680540855    1.2709117759
