13   
From optimize.out: Frame 1 / 2, Energy=    -286.8383360532
C        1.2467903328    0.2391493530    0.2452889900
C        0.5671291017   -1.1296078278   -0.2130786642
C       -0.7462328251   -0.8837993413   -0.7938688356
C       -1.0526486561    0.2204303567    0.2141082371
C       -0.4347294886    1.4776613843   -0.3838562609
N        0.8482391741    1.4593432948   -0.4109522628
H        2.2856112669    0.1481923634    0.5460922891
H        1.2042191783   -2.0016887613   -0.3225968500
H       -1.1575096410   -1.0762076433   -1.7821280533
H       -2.0596013823    0.2974853457    0.6304837076
H       -1.0062005099    2.2666915076   -0.8701299983
C        0.1476016803   -0.3534424927    1.0501550238
H        0.1573317683   -0.6642075387    2.0904826776
13   
From optimize.out: Frame 2 / 3, Energy=    -286.8249843035
C        1.3034546361    0.2523792074    0.3288982450
C        0.5916208169   -1.0050615106   -0.2092733159
C       -0.6521746658   -0.3977619576   -0.9052004810
C       -1.0959615426    0.1946255814    0.4034628598
C       -0.4551047710    1.1111037542   -0.6554759130
N        0.8876507590    1.4247890291   -0.3428919214
H        2.3207843931    0.1923823779    0.6997398880
H        1.0948072486   -1.9399707229   -0.4291213193
H       -1.2305206661   -0.8066343762   -1.7260998326
H       -2.0890181747    0.3400189988    0.8137148189
H       -1.0542314864    1.8406678575   -1.1890933672
C        0.1477966174   -0.4136884767    1.0994451576
H        0.2308968352   -0.7928497623    2.1118951812
