13   
Frame   0 IRC: Energy =  -286.8593580000 ; +0.0000 kcal/mol
C        1.2492467599    0.2399271577    0.2518696042
C        0.5665165042   -1.1291107371   -0.2137731352
C       -0.7465313887   -0.8794381671   -0.7924339112
C       -1.0525385066    0.2225248534    0.2198319462
C       -0.4365393380    1.4758324814   -0.3885640269
N        0.8482919169    1.4553704079   -0.4100963746
H        2.2883692382    0.1483321757    0.5478890154
H        1.2045607104   -1.9985066332   -0.3292567308
H       -1.1636075705   -1.0702896872   -1.7778245157
H       -2.0578052420    0.3021627473    0.6377902282
H       -1.0066119584    2.2538801971   -0.8919196790
C        0.1487491307   -0.3520547596    1.0542026758
H        0.1578997443   -0.6686300362    2.0922849041
13   
Frame   1 IRC: Energy =  -286.8593550000 ; +0.0019 kcal/mol
C        1.2490824501    0.2395190296    0.2522450011
C        0.5665267046   -1.1291177841   -0.2137277852
C       -0.7465744619   -0.8793494799   -0.7923718240
C       -1.0525018907    0.2225134570    0.2199225364
C       -0.4364034750    1.4758257778   -0.3887034121
N        0.8479241286    1.4555751243   -0.4103179314
H        2.2884011477    0.1483564781    0.5479708370
H        1.2044956011   -1.9983656563   -0.3293524971
H       -1.1634917779   -1.0696758975   -1.7779654954
H       -2.0578585544    0.3022118031    0.6380903486
H       -1.0066044750    2.2533490432   -0.8923792164
C        0.1490499200   -0.3521340734    1.0543966934
H        0.1579546828   -0.6687078220    2.0921927452
13   
Frame   2 IRC: Energy =  -286.8592990000 ; +0.0370 kcal/mol
C        1.2492446478    0.2400990842    0.2540030879
C        0.5661416373   -1.1278201227   -0.2133657936
C       -0.7477574575   -0.8770342884   -0.7909402310
C       -1.0526996524    0.2222129220    0.2240272950
C       -0.4370510738    1.4726188077   -0.3902557165
N        0.8478257317    1.4534678311   -0.4108424500
H        2.2881872318    0.1487247316    0.5506483372
H        1.2045054773   -1.9964351101   -0.3325447031
H       -1.1616875952   -1.0564554765   -1.7799281379
H       -2.0568683428    0.3035512841    0.6441615467
H       -1.0080425263    2.2427330730   -0.9049407631
C        0.1489741640   -0.3530806012    1.0563306671
H        0.1592277580   -0.6725821350    2.0936468614
13   
Frame   3 IRC: Energy =  -286.8592900000 ; +0.0427 kcal/mol
C        1.2489401693    0.2394579545    0.2546611708
C        0.5661554997   -1.1277741428   -0.2133284647
C       -0.7477925379   -0.8768416026   -0.7908052306
C       -1.0525675470    0.2222677315    0.2243256392
C       -0.4370434365    1.4725981430   -0.3906109926
N        0.8473372187    1.4537672512   -0.4111938632
H        2.2882858266    0.1487858276    0.5509318792
H        1.2044079444   -1.9960826589   -0.3328535045
H       -1.1615409457   -1.0551358406   -1.7801372303
H       -2.0569478805    0.3037046635    0.6448434098
H       -1.0079660779    2.2414128316   -0.9060484930
C        0.1493959314   -0.3532699694    1.0566942335
H        0.1593358356   -0.6728901886    2.0935214464
13   
Frame   4 IRC: Energy =  -286.8592570000 ; +0.0634 kcal/mol
C        1.2492963569    0.2403046929    0.2550992420
C        0.5659822904   -1.1270541615   -0.2132240129
C       -0.7484155182   -0.8757094489   -0.7901755300
C       -1.0528061284    0.2220281936    0.2262009659
C       -0.4372289883    1.4709517741   -0.3911269017
N        0.8476353791    1.4524292852   -0.4111413464
H        2.2880721304    0.1489527463    0.5522061213
H        1.2045464602   -1.9952735746   -0.3343807259
H       -1.1608854982   -1.0494826880   -1.7808427609
H       -2.0563571783    0.3043422674    0.6474532050
H       -1.0087443803    2.2368924311   -0.9117993914
C        0.1490516537   -0.3535954430    1.0574076476
H        0.1598534209   -0.6747860747    2.0943234872
13   
Frame   5 IRC: Energy =  -286.8592410000 ; +0.0734 kcal/mol
C        1.2489394483    0.2395448460    0.2559925478
C        0.5660081875   -1.1269054106   -0.2131882571
C       -0.7484978001   -0.8753838624   -0.7899485059
C       -1.0526289062    0.2221968919    0.2267809776
C       -0.4373801236    1.4707581965   -0.3916542058
N        0.8471157585    1.4527440688   -0.4116003252
H        2.2882259054    0.1490507878    0.5527368272
H        1.2044489420   -1.9947119313   -0.3349574553
H       -1.1606994047   -1.0473129584   -1.7811461366
H       -2.0563977676    0.3046092371    0.6485717917
H       -1.0086590997    2.2347153136   -0.9137573298
C        0.1494923509   -0.3539015963    1.0579320388
H        0.1600325092   -0.6754035828    2.0942380325
13   
Frame   6 IRC: Energy =  -286.8592090000 ; +0.0935 kcal/mol
C        1.2493391300    0.2405167409    0.2562692367
C        0.5658653668   -1.1261905219   -0.2131370593
C       -0.7490242386   -0.8743689119   -0.7894507101
C       -1.0529334911    0.2217809075    0.2282760887
C       -0.4373692236    1.4692534765   -0.3920660068
N        0.8475049015    1.4514381395   -0.4114008444
H        2.2879248647    0.1491925074    0.5537944587
H        1.2045614799   -1.9940025970   -0.3362603423
H       -1.1602549516   -1.0428289277   -1.7815845838
H       -2.0558695030    0.3051701156    0.6506833646
H       -1.0093312489    2.2311253708   -0.9184807599
C        0.1491650791   -0.3540560313    1.0584621054
H        0.1604218346   -0.6770302685    2.0948950526
13   
Frame   7 IRC: Energy =  -286.8591830000 ; +0.1098 kcal/mol
C        1.2488820765    0.2397337553    0.2572976769
C        0.5658439637   -1.1259209667   -0.2130682796
C       -0.7491079732   -0.8736883638   -0.7891405930
C       -1.0526896041    0.2221346039    0.2291909837
C       -0.4376604633    1.4684703163   -0.3930831487
N        0.8468389103    1.4519160011   -0.4118250337
H        2.2880143051    0.1493195867    0.5545640856
H        1.2044473614   -1.9931898448   -0.3371232532
H       -1.1600155107   -1.0398423556   -1.7818643693
H       -2.0558348889    0.3055325495    0.6522435816
H       -1.0089956313    2.2279538024   -0.9210912688
C        0.1496145041   -0.3544368660    1.0591145023
H        0.1606629503   -0.6779822186    2.0947851164
13   
Frame   8 IRC: Energy =  -286.8591600000 ; +0.1242 kcal/mol
C        1.2484152787    0.2391131618    0.2578229254
C        0.5658660949   -1.1259703848   -0.2130643826
C       -0.7490209921   -0.8735324140   -0.7890537328
C       -1.0524686381    0.2223246017    0.2293764793
C       -0.4365796139    1.4684800555   -0.3935617869
N        0.8452230122    1.4524112644   -0.4120992147
H        2.2882354355    0.1493277382    0.5548163865
H        1.2043381779   -1.9928631531   -0.3373317219
H       -1.1599802884   -1.0390864394   -1.7819575861
H       -2.0559900127    0.3056165473    0.6527121340
H       -1.0087554362    2.2269461425   -0.9216293498
C        0.1500053597   -0.3545970531    1.0594058552
H        0.1607116225   -0.6781700668    2.0945639946
13   
Frame   9 IRC: Energy =  -286.8587810000 ; +0.3621 kcal/mol
C        1.2497261997    0.2414358295    0.2641951086
C        0.5659087168   -1.1207570730   -0.2139420615
C       -0.7522706379   -0.8658747808   -0.7856247209
C       -1.0530883044    0.2217366126    0.2399562703
C       -0.4380562442    1.4607709475   -0.3969657620
N        0.8471583818    1.4476383724   -0.4119928069
H        2.2874059940    0.1523548734    0.5659811737
H        1.2046631674   -1.9864257220   -0.3488036320
H       -1.1610281070   -1.0081877832   -1.7831844900
H       -2.0531531212    0.3105964229    0.6682142826
H       -1.0113764065    2.1963685173   -0.9586971068
C        0.1501288041   -0.3574408187    1.0640892539
H        0.1639815573   -0.6922153979    2.0967744909
13   
Frame  10 IRC: Energy =  -286.8587410000 ; +0.3872 kcal/mol
C        1.2502845701    0.2418072194    0.2644440364
C        0.5658332859   -1.1204397419   -0.2139957671
C       -0.7524727058   -0.8655351345   -0.7855353422
C       -1.0536225079    0.2220359199    0.2404638198
C       -0.4373201273    1.4588887371   -0.3960978641
N        0.8473550207    1.4474848830   -0.4120590941
H        2.2870345050    0.1525391072    0.5664322997
H        1.2047564449   -1.9861994166   -0.3493858498
H       -1.1610575183   -1.0066620956   -1.7831760194
H       -2.0527260994    0.3107768638    0.6688726880
H       -1.0121411986    2.1957595491   -0.9611704008
C        0.1499168177   -0.3574975766    1.0641510804
H        0.1641595130   -0.6929583144    2.0970564132
13   
Frame  11 IRC: Energy =  -286.8581530000 ; +0.7561 kcal/mol
C        1.2504523152    0.2428337551    0.2717098275
C        0.5666986251   -1.1148693774   -0.2156876369
C       -0.7544555064   -0.8563694656   -0.7828932465
C       -1.0526030457    0.2216898422    0.2503374473
C       -0.4379924299    1.4537644713   -0.4018915297
N        0.8468108271    1.4450710874   -0.4115234205
H        2.2874224886    0.1569767255    0.5794026484
H        1.2025307642   -1.9804571134   -0.3606864276
H       -1.1648123269   -0.9783039685   -1.7828253966
H       -2.0509521663    0.3152647478    0.6827817052
H       -1.0122956845    2.1613798168   -0.9946508482
C        0.1514171124   -0.3604949863    1.0686442166
H        0.1677790272   -0.7064855351    2.0972826611
13   
Frame  12 IRC: Energy =  -286.8580190000 ; +0.8402 kcal/mol
C        1.2514638214    0.2435240422    0.2728424685
C        0.5667457726   -1.1136947779   -0.2159495100
C       -0.7550039630   -0.8547735720   -0.7826498616
C       -1.0532087658    0.2221536379    0.2519518758
C       -0.4379354209    1.4506108774   -0.4011277901
N        0.8479442106    1.4447095871   -0.4114932583
H        2.2868497767    0.1578380503    0.5814701728
H        1.2022651504   -1.9797087276   -0.3626964641
H       -1.1654359516   -0.9734155820   -1.7825531423
H       -2.0501504837    0.3159236101    0.6849731906
H       -1.0132570235    2.1566534547   -1.0014914294
C        0.1512661829   -0.3608841126    1.0690813224
H        0.1684566940   -0.7089364875    2.0976424256
13   
Frame  13 IRC: Energy =  -286.8576270000 ; +1.0862 kcal/mol
C        1.2512760612    0.2439970445    0.2764902505
C        0.5674168206   -1.1107926309   -0.2170807593
C       -0.7555554367   -0.8496827414   -0.7814792873
C       -1.0522521022    0.2218280709    0.2568774415
C       -0.4377706615    1.4492461004   -0.4046825780
N        0.8469093289    1.4437842070   -0.4109409395
H        2.2875315796    0.1602821936    0.5884493419
H        1.2003333857   -1.9771224816   -0.3682675194
H       -1.1680073750   -0.9598465508   -1.7821218380
H       -2.0495815270    0.3179341614    0.6914950060
H       -1.0129385321    2.1382758198   -1.0174102616
C        0.1522776267   -0.3623765445    1.0713095365
H        0.1703608317   -0.7155266486    2.0973616068
13   
Frame  14 IRC: Energy =  -286.8573910000 ; +1.2343 kcal/mol
C        1.2527027925    0.2449987713    0.2782441401
C        0.5676544990   -1.1088812349   -0.2175904011
C       -0.7562363523   -0.8469144662   -0.7812752795
C       -1.0528891954    0.2224211725    0.2592405945
C       -0.4377379814    1.4452416909   -0.4038377212
N        0.8484876490    1.4433971222   -0.4107585192
H        2.2869143662    0.1616955467    0.5918202448
H        1.1994535493   -1.9762165432   -0.3712525336
H       -1.1693098362   -0.9528333744   -1.7815150222
H       -2.0485506762    0.3187713457    0.6945315541
H       -1.0141526149    2.1303723242   -1.0272389372
C        0.1522284609   -0.3629398875    1.0719290776
H        0.1714353394   -0.7191124672    2.0977028030
13   
Frame  15 IRC: Energy =  -286.8569420000 ; +1.5161 kcal/mol
C        1.2525884777    0.2454621082    0.2816577787
C        0.5685583394   -1.1058233893   -0.2189628668
C       -0.7562052195   -0.8413495049   -0.7804445200
C       -1.0516732734    0.2221946987    0.2639357656
C       -0.4372921839    1.4444864795   -0.4074274082
N        0.8473030645    1.4427985640   -0.4100577675
H        2.2879261998    0.1641426063    0.5988261067
H        1.1966497782   -1.9741496410   -0.3763686116
H       -1.1724146047   -0.9406413572   -1.7809125479
H       -2.0482635028    0.3202892133    0.7001756246
H       -1.0138246956    2.1119587829   -1.0415889103
C        0.1533414392   -0.3642893544    1.0739900453
H        0.1733061810   -0.7250792061    2.0971773113
13   
Frame  16 IRC: Energy =  -286.8565600000 ; +1.7558 kcal/mol
C        1.2546259072    0.2468096443    0.2840672142
C        0.5691954020   -1.1028514177   -0.2198431871
C       -0.7568192008   -0.8367669874   -0.7805916498
C       -1.0523040744    0.2230329385    0.2671138780
C       -0.4371136295    1.4395872177   -0.4062729888
N        0.8494618180    1.4424773524   -0.4097450320
H        2.2874093168    0.1661129977    0.6036940046
H        1.1945941204   -1.9732985981   -0.3802772071
H       -1.1746851978   -0.9317087042   -1.7798449895
H       -2.0470742307    0.3210466699    0.7038293021
H       -1.0155329162    2.1002123540   -1.0543628563
C        0.1534299856   -0.3649411624    1.0747215266
H        0.1748126997   -0.7297123047    2.0975119852
13   
Frame  17 IRC: Energy =  -286.8559290000 ; +2.1517 kcal/mol
C        1.2550477190    0.2473308116    0.2878059249
C        0.5707165683   -1.0984355233   -0.2218311119
C       -0.7556520605   -0.8285327584   -0.7804802837
C       -1.0507154458    0.2230866537    0.2726112881
C       -0.4363362438    1.4387753060   -0.4102014062
N        0.8484815235    1.4418883585   -0.4089918271
H        2.2890076491    0.1688732092    0.6120329922
H        1.1897935461   -1.9715085149   -0.3856864950
H       -1.1791920558   -0.9190263419   -1.7790644782
H       -2.0471760556    0.3220145880    0.7094723825
H       -1.0156730909    2.0778509578   -1.0696492128
C        0.1547272596   -0.3663663914    1.0771055342
H        0.1769706867   -0.7359503550    2.0968766932
13   
Frame  18 IRC: Energy =  -286.8552550000 ; +2.5747 kcal/mol
C        1.2581066347    0.2488494917    0.2912200505
C        0.5727306018   -1.0932508397   -0.2233752641
C       -0.7553459905   -0.8192070511   -0.7824357722
C       -1.0513506724    0.2245725148    0.2774384998
C       -0.4358130070    1.4324718626   -0.4086838517
N        0.8516902130    1.4413337920   -0.4089397586
H        2.2891615979    0.1714296728    0.6191636233
H        1.1849150545   -1.9706877204   -0.3905590141
H       -1.1833741632   -0.9080844143   -1.7773980276
H       -2.0461954342    0.3221911631    0.7138241945
H       -1.0185810232    2.0592910959   -1.0860298220
C        0.1549680100   -0.3671105005    1.0781476095
H        0.1790881785   -0.7417990668    2.0976275329
13   
Frame  19 IRC: Energy =  -286.8543620000 ; +3.1350 kcal/mol
C        1.2596084186    0.2487215001    0.2950910050
C        0.5750087980   -1.0860804631   -0.2258663971
C       -0.7507158563   -0.8054369353   -0.7845081493
C       -1.0496555404    0.2247807588    0.2835899452
C       -0.4345199546    1.4311669367   -0.4132532102
N        0.8507460251    1.4396752325   -0.4090664489
H        2.2917759638    0.1739072470    0.6278869171
H        1.1777247497   -1.9694900635   -0.3952278537
H       -1.1898491643   -0.8972740961   -1.7772031790
H       -2.0476283969    0.3222618462    0.7192423123
H       -1.0198266099    2.0340642776   -1.0998927255
C        0.1559571830   -0.3689630540    1.0812939449
H        0.1813743841   -0.7473331868    2.0979138393
13   
Frame  20 IRC: Energy =  -286.8534280000 ; +3.7211 kcal/mol
C        1.2632189893    0.2498117459    0.2988659667
C        0.5797010732   -1.0793340151   -0.2273795006
C       -0.7482356354   -0.7903295195   -0.7905865918
C       -1.0512692982    0.2263196781    0.2888114760
C       -0.4352055748    1.4239376370   -0.4122450871
N        0.8554672360    1.4373376928   -0.4104731211
H        2.2933997833    0.1757352484    0.6344114063
H        1.1709060183   -1.9689176098   -0.3989078239
H       -1.1952656925   -0.8891457713   -1.7756091433
H       -2.0476257546    0.3218095199    0.7232750760
H       -1.0239467236    2.0150523485   -1.1138368582
C        0.1551957252   -0.3699941235    1.0831021262
H        0.1836598540   -0.7522828314    2.1005720748
13   
Frame  21 IRC: Energy =  -286.8509400000 ; +5.2824 kcal/mol
C        1.2681553517    0.2465017901    0.3041506925
C        0.5869911238   -1.0649879487   -0.2282352692
C       -0.7294226513   -0.7474449054   -0.8060190000
C       -1.0541596588    0.2242930626    0.3006443025
C       -0.4327884964    1.4056248338   -0.4284164934
N        0.8542880635    1.4309206774   -0.4107302898
H        2.2990501472    0.1774960729    0.6436870859
H        1.1573905751   -1.9663898578   -0.4026292096
H       -1.2066892703   -0.8794820932   -1.7725593356
H       -2.0554669721    0.3225721417    0.7340963914
H       -1.0296419733    1.9844181967   -1.1284465006
C        0.1547186949   -0.3757970366    1.0887788966
H        0.1875750661   -0.7577249335    2.1056787292
13   
Frame  22 IRC: Energy =  -286.8472300000 ; +7.6104 kcal/mol
C        1.2741457231    0.2441462536    0.3055066699
C        0.5925760883   -1.0545517717   -0.2261140369
C       -0.7150018903   -0.6973756580   -0.8226831434
C       -1.0602627392    0.2192099980    0.3141166937
C       -0.4349710484    1.3732326002   -0.4514681570
N        0.8578929321    1.4269460364   -0.4066530909
H        2.3030860609    0.1784315830    0.6491709988
H        1.1479302859   -1.9644275425   -0.4044758653
H       -1.2128990121   -0.8731909058   -1.7659570063
H       -2.0617438402    0.3234723525    0.7428868117
H       -1.0347399598    1.9660537265   -1.1369216748
C        0.1531342455   -0.3811725636    1.0923720754
H        0.1908531542   -0.7607741086    2.1102197250
13   
Frame  23 IRC: Energy =  -286.8425870000 ; +10.5240 kcal/mol
C        1.2796318253    0.2407529811    0.3059770695
C        0.5975017397   -1.0447482137   -0.2232552081
C       -0.6999078109   -0.6460331306   -0.8386943383
C       -1.0665966923    0.2128229599    0.3279132795
C       -0.4366340061    1.3387374763   -0.4786476065
N        0.8595102012    1.4232089862   -0.4015336864
H        2.3071705525    0.1790279385    0.6535886293
H        1.1394611403   -1.9621856433   -0.4055123538
H       -1.2181229729   -0.8676677233   -1.7595621056
H       -2.0688968267    0.3247378875    0.7517457975
H       -1.0389738394    1.9508586714   -1.1422435033
C        0.1520096927   -0.3867513035    1.0960105354
H        0.1938469968   -0.7627608865    2.1142134909
13   
Frame  24 IRC: Energy =  -286.8384500000 ; +13.1200 kcal/mol
C        1.2850799618    0.2377342236    0.3046556505
C        0.6010020744   -1.0374220156   -0.2188062480
C       -0.6898926312   -0.5949587316   -0.8515948055
C       -1.0734559767    0.2054566248    0.3417884930
C       -0.4420393722    1.2990295280   -0.5095274445
N        0.8638786750    1.4214340156   -0.3935149075
H        2.3101876976    0.1794307292    0.6563157389
H        1.1339973951   -1.9603967792   -0.4058926660
H       -1.2204288328   -0.8630690447   -1.7533708270
H       -2.0741117860    0.3257727563    0.7587457414
H       -1.0418131816    1.9417196047   -1.1438544851
C        0.1512110104   -0.3912476165    1.0984528004
H        0.1963849662   -0.7634832945    2.1166029594
13   
Frame  25 IRC: Energy =  -286.8367410000 ; +14.1924 kcal/mol (Transition State)
C        1.2902879687    0.2366586690    0.3042441887
C        0.6020362377   -1.0315769380   -0.2147433643
C       -0.6816654272   -0.5454890896   -0.8634268453
C       -1.0796769176    0.2000597844    0.3554977313
C       -0.4492701392    1.2562823397   -0.5417256007
N        0.8698627798    1.4202615627   -0.3843346730
H        2.3130682818    0.1798152820    0.6585993829
H        1.1295433422   -1.9584479695   -0.4061540005
H       -1.2216808219   -0.8585011981   -1.7472477433
H       -2.0785180028    0.3263117785    0.7651776347
H       -1.0438317804    1.9336949411   -1.1438907412
C        0.1506808405   -0.3952731840    1.0997932941
H        0.1991636385   -0.7637959783    2.1182107366
13   
Frame  26 IRC: Energy =  -286.8383710000 ; +13.1696 kcal/mol
C        1.2954969536    0.2365555044    0.3043560702
C        0.6020176554   -1.0260548717   -0.2111631173
C       -0.6736789159   -0.4969731949   -0.8758235865
C       -1.0853870653    0.1955266215    0.3693699188
C       -0.4570498109    1.2129115397   -0.5742363707
N        0.8763953717    1.4190300223   -0.3749390044
H        2.3160067371    0.1801948551    0.6608496411
H        1.1251795921   -1.9564090074   -0.4064105540
H       -1.2225529362   -0.8537124958   -1.7406542112
H       -2.0829913858    0.3267464634    0.7716546062
H       -1.0456088273    1.9254422757   -1.1435972617
C        0.1500527410   -0.3991818945    1.1008047023
H        0.2021198907   -0.7640758180    2.1197891671
13   
Frame  27 IRC: Energy =  -286.8419060000 ; +10.9513 kcal/mol
C        1.3002826809    0.2386233760    0.3067107210
C        0.5993941494   -1.0207887201   -0.2086731707
C       -0.6656066995   -0.4508754287   -0.8890404281
C       -1.0903276926    0.1932557780    0.3831711771
C       -0.4633625762    1.1688977040   -0.6079148436
N        0.8821144437    1.4175298785   -0.3653763823
H        2.3195601541    0.1805934006    0.6634441404
H        1.1203647562   -1.9533997684   -0.4069420330
H       -1.2230554849   -0.8480779512   -1.7333833415
H       -2.0877223996    0.3268819282    0.7787062324
H       -1.0468412600    1.9149280914   -1.1426149229
C        0.1492656416   -0.4031521726    1.1010305203
H        0.2059342869   -0.7644161156    2.1208823309
13   
Frame  28 IRC: Energy =  -286.8445800000 ; +9.2733 kcal/mol
C        1.3047744922    0.2424793727    0.3127390204
C        0.5948435970   -1.0137146441   -0.2074978418
C       -0.6569307795   -0.4110274538   -0.9051640360
C       -1.0944916183    0.1924157026    0.3964198243
C       -0.4641515544    1.1298009585   -0.6429807036
N        0.8850418469    1.4152604421   -0.3558676666
H        2.3246713279    0.1812009360    0.6678506196
H        1.1126501773   -1.9478762244   -0.4087539578
H       -1.2237565474   -0.8394742232   -1.7244636600
H       -2.0938051769    0.3273679320    0.7881775901
H       -1.0481686404    1.8968521782   -1.1428361993
C        0.1472867418   -0.4075519922    1.1009078718
H        0.2120361338   -0.7657329844    2.1214691389
13   
Frame  29 IRC: Energy =  -286.8450260000 ; +8.9935 kcal/mol
C        1.3059868181    0.2452141808    0.3185900723
C        0.5925186442   -1.0097871173   -0.2077277411
C       -0.6531466406   -0.4010870721   -0.9090234294
C       -1.0960968505    0.1933682355    0.3980722207
C       -0.4604209666    1.1178458488   -0.6538746968
N        0.8867196399    1.4155755082   -0.3517212208
H        2.3274339564    0.1819808458    0.6721081813
H        1.1060240483   -1.9434410154   -0.4116816952
H       -1.2259238710   -0.8333772834   -1.7222177911
H       -2.0955700703    0.3282268321    0.7939375929
H       -1.0506137532    1.8830793045   -1.1477885325
C        0.1459672127   -0.4094807779    1.1005713832
H        0.2171218326   -0.7681174897    2.1207556565
13   
Frame  30 IRC: Energy =  -286.8452190000 ; +8.8724 kcal/mol
C        1.3065567282    0.2471576217    0.3228653543
C        0.5917322851   -1.0072337879   -0.2073843000
C       -0.6525451940   -0.4003244556   -0.9099309219
C       -1.0960991990    0.1939334030    0.3992982687
C       -0.4579105306    1.1163662597   -0.6566175406
N        0.8879464047    1.4168457513   -0.3487321783
H        2.3282382917    0.1829777467    0.6773378194
H        1.1006863095   -1.9415615961   -0.4159264035
H       -1.2279930573   -0.8274318695   -1.7223105572
H       -2.0947743305    0.3299777571    0.7978268719
H       -1.0531440394    1.8704750442   -1.1565427323
C        0.1455711143   -0.4094767466    1.1009147137
H        0.2217352173   -0.7717051281    2.1192016059
13   
Frame  31 IRC: Energy =  -286.8452760000 ; +8.8366 kcal/mol
C        1.3067126059    0.2475661879    0.3237542536
C        0.5917768512   -1.0071651874   -0.2075832108
C       -0.6523091472   -0.3990518042   -0.9088263798
C       -1.0962987419    0.1944188135    0.3995182009
C       -0.4578176613    1.1148268714   -0.6563959600
N        0.8879521924    1.4177203277   -0.3479726671
H        2.3278442407    0.1835365520    0.6797209246
H        1.0991612899   -1.9414577722   -0.4175557898
H       -1.2285483646   -0.8251499804   -1.7227463339
H       -2.0939569405    0.3310208667    0.7991307325
H       -1.0540125809    1.8667899801   -1.1609097021
C        0.1462964355   -0.4095914938    1.1010748104
H        0.2231998208   -0.7734633613    2.1187911214
13   
Frame  32 IRC: Energy =  -286.8453480000 ; +8.7914 kcal/mol
C        1.3067827939    0.2483482864    0.3249071575
C        0.5916574516   -1.0064156992   -0.2078443703
C       -0.6522723635   -0.3989343964   -0.9085258427
C       -1.0957129989    0.1947718003    0.4010890505
C       -0.4575788533    1.1147637277   -0.6569608992
N        0.8874932531    1.4184244826   -0.3466989289
H        2.3272809395    0.1846290983    0.6836365022
H        1.0969949562   -1.9416323220   -0.4202044827
H       -1.2289201121   -0.8210496914   -1.7228068916
H       -2.0933354433    0.3329248305    0.8016580154
H       -1.0547869209    1.8602782016   -1.1675115234
C        0.1468082622   -0.4098026277    1.1013052029
H        0.2255890356   -0.7763056907    2.1179570103
13   
Frame  33 IRC: Energy =  -286.8453740000 ; +8.7751 kcal/mol
C        1.3068369532    0.2484749673    0.3254515343
C        0.5918634598   -1.0064731733   -0.2079546287
C       -0.6522049224   -0.3982808987   -0.9076412133
C       -1.0961915751    0.1950404421    0.4012669912
C       -0.4574983898    1.1138798701   -0.6568452083
N        0.8874955772    1.4189790294   -0.3463173694
H        2.3267919155    0.1853027073    0.6852751420
H        1.0961217917   -1.9415656334   -0.4212490286
H       -1.2292055484   -0.8194671249   -1.7231631677
H       -2.0926773986    0.3337771655    0.8027909283
H       -1.0551450295    1.8579919379   -1.1704931315
C        0.1472402777   -0.4100523780    1.1013020596
H        0.2265728887   -0.7776069113    2.1175770921
13   
Frame  34 IRC: Energy =  -286.8454100000 ; +8.7525 kcal/mol
C        1.3067335998    0.2490502278    0.3261591912
C        0.5917668510   -1.0060747068   -0.2082571716
C       -0.6522789178   -0.3983028269   -0.9072885774
C       -1.0957514212    0.1951929361    0.4023717375
C       -0.4573486549    1.1137386993   -0.6571860350
N        0.8870599518    1.4193055333   -0.3455736200
H        2.3261714612    0.1865506012    0.6882689948
H        1.0948498471   -1.9417876300   -0.4230898408
H       -1.2293700276   -0.8164857889   -1.7233641415
H       -2.0922387680    0.3354517668    0.8051265426
H       -1.0553650040    1.8535757433   -1.1754227008
C        0.1474562310   -0.4103134381    1.1014381646
H        0.2283148515   -0.7799011171    2.1168174564
13   
Frame  35 IRC: Energy =  -286.8454210000 ; +8.7456 kcal/mol
C        1.3067541377    0.2490677586    0.3265424135
C        0.5919292460   -1.0061481327   -0.2082705836
C       -0.6523227777   -0.3979149418   -0.9067475705
C       -1.0962249000    0.1953735443    0.4025280271
C       -0.4573977860    1.1131872317   -0.6571708389
N        0.8870617626    1.4196500360   -0.3453978374
H        2.3257721181    0.1871513136    0.6893919934
H        1.0943554575   -1.9417309203   -0.4237356151
H       -1.2295352811   -0.8154670650   -1.7236619021
H       -2.0916919463    0.3361070092    0.8060129395
H       -1.0554432839    1.8521088483   -1.1773672911
C        0.1477952121   -0.4105333350    1.1013505763
H        0.2289480410   -0.7808513469    2.1165256888
13   
Frame  36 IRC: Energy =  -286.8454390000 ; +8.7343 kcal/mol
C        1.3066258682    0.2495515358    0.3270392656
C        0.5918188776   -1.0059347284   -0.2085903177
C       -0.6524195709   -0.3979902542   -0.9064387427
C       -1.0959284934    0.1954559287    0.4033591284
C       -0.4572377986    1.1129531810   -0.6573953891
N        0.8866566466    1.4197713590   -0.3449631507
H        2.3252070386    0.1883676472    0.6917564427
H        1.0935528439   -1.9418827506   -0.4250280343
H       -1.2296603302   -0.8133105783   -1.7239854401
H       -2.0912657188    0.3375710015    0.8080950252
H       -1.0554439283    1.8489791463   -1.1811297912
C        0.1478668968   -0.4107639845    1.1014421832
H        0.2302276687   -0.7827675035    2.1158388208
13   
Frame  37 IRC: Energy =  -286.8454440000 ; +8.7312 kcal/mol
C        1.3066171171    0.2495066821    0.3273016824
C        0.5919526013   -1.0059755000   -0.2085288754
C       -0.6525449021   -0.3977588644   -0.9061328284
C       -1.0962696339    0.1955650325    0.4034201747
C       -0.4573765960    1.1126172798   -0.6574421102
N        0.8866973603    1.4200044116   -0.3448937814
H        2.3249194816    0.1888323168    0.6924864910
H        1.0932847117   -1.9418397766   -0.4254054185
H       -1.2297395727   -0.8126884696   -1.7241854420
H       -2.0908682386    0.3380551269    0.8087517799
H       -1.0554099860    1.8480605835   -1.1823199196
C        0.1481348486   -0.4109449737    1.1013324696
H        0.2306028086   -0.7834338490    2.1156157780
