13   
Frame   0 IRC: Energy =  -286.8593580000 ; +0.0000 kcal/mol
C        1.2492467599    0.2399271577    0.2518696042
C        0.5665165042   -1.1291107371   -0.2137731352
C       -0.7465313887   -0.8794381671   -0.7924339112
C       -1.0525385066    0.2225248534    0.2198319462
C       -0.4365393380    1.4758324814   -0.3885640269
N        0.8482919169    1.4553704079   -0.4100963746
H        2.2883692382    0.1483321757    0.5478890154
H        1.2045607104   -1.9985066332   -0.3292567308
H       -1.1636075705   -1.0702896872   -1.7778245157
H       -2.0578052420    0.3021627473    0.6377902282
H       -1.0066119584    2.2538801971   -0.8919196790
C        0.1487491307   -0.3520547596    1.0542026758
H        0.1578997443   -0.6686300362    2.0922849041
13   
Frame   1 IRC: Energy =  -286.8576854916 ; +1.0495 kcal/mol
C        1.2513040775    0.2439264663    0.2759459531
C        0.5673166914   -1.1112256697   -0.2169119619
C       -0.7554731495   -0.8504423607   -0.7816539525
C       -1.0523948491    0.2218766498    0.2561424819
C       -0.4377952458    1.4494497432   -0.4041521566
N        0.8470637469    1.4439222860   -0.4110233528
H        2.2874298456    0.1599174951    0.5874079575
H        1.2006216306   -1.9775083837   -0.3674362442
H       -1.1676236846   -0.9618712299   -1.7821861943
H       -2.0496664228    0.3176341606    0.6905218648
H       -1.0129860553    2.1410180062   -1.0150349611
C        0.1521267059   -0.3621538539    1.0709770575
H        0.1700767091   -0.7145433094    2.0974035087
13   
Frame   2 IRC: Energy =  -286.8529643599 ; +4.0121 kcal/mol
C        1.2641388831    0.2491949339    0.2998507782
C        0.5810595781   -1.0766606179   -0.2275389735
C       -0.7447298258   -0.7823379487   -0.7934624294
C       -1.0518079185    0.2259420172    0.2910165295
C       -0.4347551509    1.4205250363   -0.4152586373
N        0.8552474966    1.4361418786   -0.4105210447
H        2.2944527316    0.1760633790    0.6361399342
H        1.1683874082   -1.9684465619   -0.3996013061
H       -1.1973944824   -0.8873449397   -1.7750408100
H       -2.0490869697    0.3219516349    0.7252916340
H       -1.0250080365    2.0093436579   -1.1165593729
C        0.1551068303   -0.3710754995    1.0841599955
H        0.1843894559   -0.7532969701    2.1015237026
13   
Frame   3 IRC: Energy =  -286.8415131464 ; +11.1978 kcal/mol
C        1.2810460146    0.2399693930    0.3056340648
C        0.5984103322   -1.0428465302   -0.2221003780
C       -0.6973081404   -0.6327755940   -0.8420429517
C       -1.0683771776    0.2109108580    0.3315149107
C       -0.4380370934    1.3284303638   -0.4866631797
N        0.8606441392    1.4227482517   -0.3994522277
H        2.3079537220    0.1791324921    0.6542965134
H        1.1380428994   -1.9617213024   -0.4056110726
H       -1.2187215119   -0.8664740303   -1.7579550166
H       -2.0702504895    0.3250065115    0.7535627941
H       -1.0397108561    1.9484864162   -1.1426616707
C        0.1518023763   -0.3879184251    1.0966444815
H        0.1945057852   -0.7629484042    2.1148337324
13   
Frame   4 IRC: Energy =  -286.8392860272 ; +12.5954 kcal/mol (Transition State)
C        1.2967357289    0.2370907686    0.3049655666
C        0.6013385664   -1.0246917396   -0.2105185999
C       -0.6715894399   -0.4850408865   -0.8792447377
C       -1.0866659361    0.1949388185    0.3729423450
C       -0.4586838568    1.2015186523   -0.5829539715
N        0.8778757413    1.4186417133   -0.3724637401
H        2.3169265315    0.1802980178    0.6615212217
H        1.1239332821   -1.9556300723   -0.4065481262
H       -1.2226830199   -0.8522540060   -1.7387721621
H       -2.0842159986    0.3267815282    0.7734799046
H       -1.0459278399    1.9227207015   -1.1433429854
C        0.1498490020   -0.4002095925    1.1008631548
H        0.2031072390   -0.7641639033    2.1200721302
13   
Frame   5 IRC: Energy =  -286.8454440000 ; +8.7312 kcal/mol
C        1.3066171171    0.2495066821    0.3273016824
C        0.5919526013   -1.0059755000   -0.2085288754
C       -0.6525449021   -0.3977588644   -0.9061328284
C       -1.0962696339    0.1955650325    0.4034201747
C       -0.4573765960    1.1126172798   -0.6574421102
N        0.8866973603    1.4200044116   -0.3448937814
H        2.3249194816    0.1888323168    0.6924864910
H        1.0932847117   -1.9418397766   -0.4254054185
H       -1.2297395727   -0.8126884696   -1.7241854420
H       -2.0908682386    0.3380551269    0.8087517799
H       -1.0554099860    1.8480605835   -1.1823199196
C        0.1481348486   -0.4109449737    1.1013324696
H        0.2306028086   -0.7834338490    2.1156157780
