13   
From optimize.out: Frame 1 / 2, Energy=    -286.8383360532
C        1.2467903328    0.2391493530    0.2452889900
C        0.5671291017   -1.1296078278   -0.2130786642
C       -0.7462328251   -0.8837993413   -0.7938688356
C       -1.0526486561    0.2204303567    0.2141082371
C       -0.4347294886    1.4776613843   -0.3838562609
N        0.8482391741    1.4593432948   -0.4109522628
H        2.2856112669    0.1481923634    0.5460922891
H        1.2042191783   -2.0016887613   -0.3225968500
H       -1.1575096410   -1.0762076433   -1.7821280533
H       -2.0596013823    0.2974853457    0.6304837076
H       -1.0062005099    2.2666915076   -0.8701299983
C        0.1476016803   -0.3534424927    1.0501550238
H        0.1573317683   -0.6642075387    2.0904826776
