13   
Frame   0 IRC: Energy =  -286.8792980000 ; +0.0000 kcal/mol
C        1.5317691294    0.3875039343   -0.4399566548
C        0.8337690146   -0.8076834498    0.0900348634
C       -0.6165411829   -1.0368339542   -0.3009473845
C       -1.1067408798    0.3381790563    0.1309002093
C       -0.4241352321    1.5188815620   -0.4507590603
N        0.8829745997    1.5199230081   -0.7107587759
H        2.6067161170    0.3678267039   -0.6028350782
H        1.4364525296   -1.6986929617    0.2546796319
H       -1.1326541347   -1.8966532769   -0.7027413773
H       -2.1710226880    0.4345942093    0.3358014699
H       -0.9905233400    2.4134509508   -0.6984913175
C       -0.3202338580   -0.5756028613    1.0547054956
H       -0.5298300744   -0.9648929203    2.0403679785
13   
Frame   1 IRC: Energy =  -286.8787402202 ; +0.3500 kcal/mol
C        1.5343521390    0.3921581477   -0.4255866750
C        0.8280233602   -0.8163885879    0.0603335308
C       -0.6298119192   -1.0271844469   -0.3015090003
C       -1.1001168777    0.3481200330    0.1579896967
C       -0.4269227899    1.5137964584   -0.4662970563
N        0.8823664019    1.5196834328   -0.7102375630
H        2.6196777114    0.3989832333   -0.5037113857
H        1.4235315503   -1.7168019884    0.1961527690
H       -1.1642215531   -1.8771066702   -0.7009237906
H       -2.1573245283    0.4545677248    0.3918269844
H       -1.0083139415    2.3735058074   -0.7900800167
C       -0.3047361340   -0.5814307739    1.0534232893
H       -0.4965034191   -0.9819023703    2.0386192172
13   
Frame   2 IRC: Energy =  -286.8775552715 ; +1.0936 kcal/mol
C        1.5354737068    0.3966893983   -0.4138413541
C        0.8205150098   -0.8258798988    0.0251002638
C       -0.6442619513   -1.0196446026   -0.3039270921
C       -1.0929967440    0.3566468133    0.1776808101
C       -0.4300280057    1.5074159193   -0.4853150662
N        0.8816548576    1.5183251887   -0.7096799652
H        2.6225424289    0.4303327116   -0.3880145233
H        1.4090191968   -1.7351289059    0.1307839526
H       -1.1976197302   -1.8640085240   -0.6891722370
H       -2.1420561248    0.4730028730    0.4414736489
H       -1.0218765269    2.3350465336   -0.8686240377
C       -0.2862447417   -0.5842255740    1.0480282727
H       -0.4541213754   -0.9885719326    2.0355073274
13   
Frame   3 IRC: Energy =  -286.8755876895 ; +2.3283 kcal/mol
C        1.5337758153    0.3986634677   -0.4068218407
C        0.8123725118   -0.8366153235   -0.0152764715
C       -0.6593113279   -1.0171353050   -0.3075619950
C       -1.0866526874    0.3614686057    0.1852257108
C       -0.4328548214    1.5020803994   -0.5079114640
N        0.8804135533    1.5182764457   -0.7090723986
H        2.6107019188    0.4574178082   -0.2585210822
H        1.3946930994   -1.7526675766    0.0615101998
H       -1.2294745937   -1.8639666504   -0.6625535877
H       -2.1270076776    0.4876572222    0.4772267962
H       -1.0293773700    2.3101606107   -0.9239887541
C       -0.2653972988   -0.5829801197    1.0370362775
H       -0.4018811217   -0.9823595845    2.0307086097
13   
Frame   4 IRC: Energy =  -286.8725210132 ; +4.2526 kcal/mol
C        1.5297001147    0.3996523959   -0.4019974258
C        0.8042792559   -0.8475218779   -0.0586121722
C       -0.6736177305   -1.0188096992   -0.3124718180
C       -1.0812797854    0.3631971168    0.1821055529
C       -0.4350704451    1.4996607646   -0.5309797763
N        0.8798270699    1.5209477396   -0.7052957936
H        2.5809979736    0.4747909256   -0.1255843195
H        1.3822302922   -1.7678327380   -0.0078617488
H       -1.2561163662   -1.8758578162   -0.6208488064
H       -2.1131961377    0.4974056825    0.4992201605
H       -1.0309816990    2.3002035989   -0.9607468593
C       -0.2430070877   -0.5780596136    1.0211116956
H       -0.3437654547   -0.9677764789    2.0219613108
13   
Frame   5 IRC: Energy =  -286.8681836633 ; +6.9744 kcal/mol
C        1.5253260483    0.4010099390   -0.3960570178
C        0.7963081776   -0.8576971153   -0.1042520314
C       -0.6857851156   -1.0219296667   -0.3204241825
C       -1.0772076352    0.3637357226    0.1715041279
C       -0.4362980373    1.5008919051   -0.5514235087
N        0.8797236192    1.5280889670   -0.6940048199
H        2.5368302948    0.4787536295    0.0016453557
H        1.3706306808   -1.7810233658   -0.0732843155
H       -1.2758975857   -1.8944264597   -0.5652101876
H       -2.1008212628    0.4992968650    0.5126975165
H       -1.0295151788    2.3005647910   -0.9875333144
C       -0.2189617151   -0.5689876095    1.0003380503
H       -0.2843322903   -0.9482776023    2.0060043274
13   
Frame   6 IRC: Energy =  -286.8623065203 ; +10.6623 kcal/mol
C        1.5197221522    0.4032018338   -0.3854718746
C        0.7903911506   -0.8682796245   -0.1523499020
C       -0.6931657144   -1.0217712891   -0.3361402256
C       -1.0733781330    0.3647758376    0.1551971290
C       -0.4388253801    1.5074574236   -0.5685156872
N        0.8792383203    1.5388731751   -0.6719450597
H        2.4855070176    0.4653564840    0.1163329141
H        1.3563638093   -1.7978630157   -0.1279464016
H       -1.2861952753   -1.9102078612   -0.4960520497
H       -2.0880373657    0.4883455220    0.5235584663
H       -1.0328613281    2.3065223891   -1.0082635986
C       -0.1915962720   -0.5526773798    0.9725604344
H       -0.2271629814   -0.9237334949    1.9790358553
13   
Frame   7 IRC: Energy =  -286.8540111196 ; +15.8678 kcal/mol
C        1.5007202560    0.4012231620   -0.3509349780
C        0.7885127374   -0.8894752012   -0.1987299352
C       -0.6893433639   -1.0070556194   -0.3708058718
C       -1.0670006044    0.3690813968    0.1362915106
C       -0.4502552938    1.5187551270   -0.5822132000
N        0.8718693912    1.5411337296   -0.6435469124
H        2.4372342954    0.4364803513    0.2032719309
H        1.3442328892   -1.8297263349   -0.1638588439
H       -1.2795967236   -1.9057818532   -0.4192392743
H       -2.0714223875    0.4668718200    0.5343563300
H       -1.0507594060    2.3143204291   -1.0225835659
C       -0.1585729710   -0.5240547499    0.9369204263
H       -0.1756188189   -0.8917722573    1.9410723839
13   
Frame   8 IRC: Energy =  -286.8392198770 ; +25.1494 kcal/mol
C        1.4513170236    0.3940824753   -0.2706953234
C        0.7764905533   -0.9257534378   -0.2288668193
C       -0.6875197406   -0.9893430487   -0.4510216040
C       -1.0589775881    0.3672719833    0.1262400687
C       -0.4655230630    1.5243712325   -0.5817784279
N        0.8591112547    1.5281380812   -0.6383368881
H        2.4075496308    0.4162218714    0.2409336899
H        1.3441316015   -1.8592887433   -0.1778532600
H       -1.2688675657   -1.8948404232   -0.3722054051
H       -2.0596558394    0.4540843986    0.5382936239
H       -1.0629821881    2.3137646666   -1.0261987106
C       -0.0945732217   -0.4664495030    0.9232132672
H       -0.1405008573   -0.8622595529    1.9182757886
13   
Frame   9 IRC: Energy =  -286.8187543901 ; +37.9917 kcal/mol (Transition State)
C        1.4001684999    0.3848875944   -0.1803712828
C        0.7548248200   -0.9625895493   -0.2408844770
C       -0.6980029967   -0.9864407763   -0.5503665133
C       -1.0545592590    0.3628455164    0.1250318100
C       -0.4719275138    1.5221720225   -0.5751167862
N        0.8443403558    1.5195515864   -0.6498284111
H        2.3934132349    0.4080564947    0.2544925048
H        1.3464336690   -1.8733893810   -0.1830414173
H       -1.2658996130   -1.8919488548   -0.3532969088
H       -2.0569974088    0.4494112053    0.5387035078
H       -1.0644700911    2.3089653816   -1.0257734637
C       -0.0116492872   -0.4022799399    0.9283507559
H       -0.1156744100   -0.8392412999    1.9121006817
13   
Frame  10 IRC: Energy =  -286.8194649700 ; +37.5458 kcal/mol
C        1.3540873658    0.3647448172   -0.0869332427
C        0.7265637343   -0.9918996400   -0.2481949581
C       -0.7152778610   -0.9875503761   -0.6454801642
C       -1.0520838617    0.3399622976    0.1291189749
C       -0.4666711218    1.5165879529   -0.5722476008
N        0.8240136806    1.5193246124   -0.6644623580
H        2.3837764461    0.4037304703    0.2610503913
H        1.3470330197   -1.8786508304   -0.1875976421
H       -1.2649041731   -1.8854822814   -0.3503130336
H       -2.0558144501    0.4459514499    0.5385408483
H       -1.0631253955    2.3048764085   -1.0261676738
C        0.0722144594   -0.3343129650    0.9418534052
H       -0.0898118427   -0.8172819158    1.9108330535
13   
Frame  11 IRC: Energy =  -286.8370033765 ; +26.5403 kcal/mol
C        1.3036051552    0.3441418878    0.0139967761
C        0.6984090155   -1.0139333568   -0.2659636026
C       -0.7281489855   -0.9839050804   -0.7105889014
C       -1.0461155264    0.3051283973    0.1240841293
C       -0.4667423443    1.5090806553   -0.5744105420
N        0.8111814620    1.5129506791   -0.6663849971
H        2.3634736709    0.3925014286    0.2728753357
H        1.3432822449   -1.8836758555   -0.1972795332
H       -1.2683028105   -1.8733916474   -0.3663692809
H       -2.0486246312    0.4350825082    0.5391225506
H       -1.0633807311    2.2991202630   -1.0285505942
C        0.1458641359   -0.2622100056    0.9540204505
H       -0.0445006553   -0.7808898735    1.9054482094
13   
Frame  12 IRC: Energy =  -286.8463943329 ; +20.6474 kcal/mol
C        1.2719962573    0.3406554327    0.0747438892
C        0.6834578365   -1.0237964085   -0.2785328873
C       -0.7298096951   -0.9792125513   -0.7378981062
C       -1.0421603138    0.2860636750    0.1142634222
C       -0.4729709296    1.4985543868   -0.5792958765
N        0.8065462608    1.5094853704   -0.6434933143
H        2.3297376405    0.3627211337    0.3169670656
H        1.3300393675   -1.8931532566   -0.2210447207
H       -1.2904004618   -1.8623104011   -0.4212436618
H       -2.0364421752    0.4046002394    0.5424822485
H       -1.0676478889    2.2841951145   -1.0401571802
C        0.1701765551   -0.2216340224    0.9546018223
H        0.0474775465   -0.7061687126    1.9186072991
13   
Frame  13 IRC: Energy =  -286.8516554119 ; +17.3460 kcal/mol
C        1.2640672531    0.3390624619    0.0866882629
C        0.6737114254   -1.0317774347   -0.2720080606
C       -0.7284071422   -0.9690153665   -0.7530060128
C       -1.0433339388    0.2752698439    0.1203538472
C       -0.4752798084    1.4942287521   -0.5752562178
N        0.8037010496    1.5117929437   -0.6314513465
H        2.3102030512    0.3399109617    0.3726119507
H        1.3185111729   -1.9030911489   -0.2501183175
H       -1.3212461390   -1.8537974930   -0.5142227989
H       -2.0400931210    0.3727208993    0.5472129155
H       -1.0740233950    2.2627766233   -1.0611140252
C        0.1765160628   -0.2199784752    0.9613574618
H        0.1356735292   -0.6181025676    1.9689523411
13   
Frame  14 IRC: Energy =  -286.8547315303 ; +15.4157 kcal/mol
C        1.2596318460    0.3346483628    0.0973442863
C        0.6653396634   -1.0429816219   -0.2525085005
C       -0.7224498809   -0.9561407892   -0.7585452775
C       -1.0428378055    0.2647959035    0.1367964858
C       -0.4795850073    1.4838299298   -0.5696217805
N        0.7998799878    1.5020425820   -0.6296209021
H        2.2999004719    0.3311399554    0.4028126788
H        1.3108925519   -1.9140904032   -0.2677110153
H       -1.3489041073   -1.8387654156   -0.6382626325
H       -2.0429945769    0.3477620943    0.5592176659
H       -1.0821034796    2.2348592372   -1.0783034890
C        0.1842712656   -0.2165894457    0.9801981870
H        0.1989590709   -0.5305103895    2.0182042936
13   
Frame  15 IRC: Energy =  -286.8562644226 ; +14.4538 kcal/mol
C        1.2587718639    0.3317518364    0.1041884765
C        0.6573431167   -1.0552281447   -0.2248756613
C       -0.7160102215   -0.9468641795   -0.7529899809
C       -1.0411301959    0.2551454524    0.1579083349
C       -0.4854109646    1.4697828527   -0.5666998643
N        0.7938338861    1.4883880027   -0.6358553512
H        2.2997308173    0.3284048288    0.4064950818
H        1.3036357803   -1.9255832106   -0.2562560693
H       -1.3698222283   -1.8131739968   -0.7838846485
H       -2.0400909450    0.3304171073    0.5848484607
H       -1.0949528741    2.2043226851   -1.0921402120
C        0.1945653769   -0.2077527473    1.0022643507
H        0.2395365881   -0.4596104863    2.0569970831
13   
Frame  16 IRC: Energy =  -286.8568880000 ; +14.0625 kcal/mol
C        1.2597448084    0.3321969575    0.1068559308
C        0.6489960655   -1.0675865977   -0.1936357648
C       -0.7132319978   -0.9451369054   -0.7330007774
C       -1.0391926723    0.2469393086    0.1796590851
C       -0.4931654901    1.4551200509   -0.5688286865
N        0.7869585746    1.4734679724   -0.6470928761
H        2.3049806421    0.3294328027    0.3945910797
H        1.2971764082   -1.9370483221   -0.2233693693
H       -1.3824965898   -1.7736001156   -0.9325051877
H       -2.0343718091    0.3223283394    0.6168036708
H       -1.1096161737    2.1736055418   -1.1056649509
C        0.2068598179   -0.1957771508    1.0222708238
H        0.2673584161   -0.4139418817    2.0839170225
