13   
From optimize.out: Frame 2 / 3, Energy=    -286.8584653799
C        1.5751877236    0.4456964295   -0.0859246270
C        0.8224775221   -0.8153030354    0.1174561384
C       -0.5187162062   -0.9686041869   -0.5830774992
C       -1.1193980815    0.3160409781   -0.0361673903
C       -0.3701428071    1.5789271588   -0.2388473708
N        0.9609130039    1.6141495743   -0.2598457188
H        2.6634259738    0.4386562133   -0.0979529891
H        1.4063163589   -1.7246875642    0.2497027670
H       -0.9207244973   -1.7424615602   -1.2221101752
H       -2.2063341362    0.3789713473   -0.0331540677
H       -0.9040697882    2.5169144806   -0.3782928638
C       -0.5024268939   -0.7468623541    0.8584352223
H       -0.8865081718   -1.2914374808    1.7097785743
13   
From optimize.out: Frame 1 / 3, Energy=    -286.8584556587
C        1.5751947784    0.4474085642   -0.0902260106
C        0.8186965414   -0.8071310614    0.1400051630
C       -0.5110743249   -0.9861473395   -0.5664963468
C       -1.1198864145    0.3133126946   -0.0029997191
C       -0.3682559446    1.5672574589   -0.2640034481
N        0.9632532046    1.6052059227   -0.3060271626
H        2.6626241354    0.4358743032   -0.0999584406
H        1.4032262741   -1.7106684011    0.3007869757
H       -0.9241245775   -1.6515565761   -1.3110620163
H       -2.2083123801    0.3640494660   -0.0019958952
H       -0.8989069494    2.5063199563   -0.3977349952
C       -0.5193970538   -0.7680618189    0.8683628701
H       -0.8730372891   -1.3158631689    1.7313490258
13   
From optimize.out: Frame 33 / 34, Energy=    -286.8584556587
C        1.5746227934    0.4457079466   -0.1089342843
C        0.8280407721   -0.8104264516    0.1454973879
C       -0.4983932522   -1.0170273669   -0.5290243261
C       -1.1048951914    0.3059566158    0.0200868120
C       -0.3732935226    1.5533078762   -0.2987445174
N        0.9580909162    1.5910602036   -0.3715201623
H        2.6617611197    0.4492375427   -0.0688012426
H        1.4220216494   -1.7051255447    0.3301842138
H       -0.9561937897   -1.5347834141   -1.3561014467
H       -2.1935089169    0.3575679755    0.0129231646
H       -0.9039987812    2.4967275731   -0.4051667945
C       -0.5211397657   -0.7698134351    0.9010193164
H       -0.8931140311   -1.3623895211    1.7285818793
13   
From optimize.out: Frame 32 / 34, Energy=    -286.8584483777
C        1.5636739471    0.4380836960   -0.1258748766
C        0.8360197812   -0.8247938805    0.1148956314
C       -0.5086413827   -1.0598104473   -0.4641181429
C       -1.0911665954    0.2974560503    0.0331550397
C       -0.3794875283    1.5386291955   -0.3312803661
N        0.9509096930    1.5813060771   -0.4211195152
H        2.6455511941    0.4615210230   -0.0194284262
H        1.4381354570   -1.7089543392    0.3161734539
H       -0.9559254786   -1.4234547551   -1.3726643969
H       -2.1795544283    0.3478404100   -0.0023188839
H       -0.9001829952    2.4906781264   -0.4043569904
C       -0.5152515438   -0.7450509098    0.9483341878
H       -0.9040801199   -1.3934502465    1.7286032852
13   
From optimize.out: Frame 29 / 34, Energy=    -286.8583943354
C        1.5527108729    0.4181596136   -0.1368115001
C        0.8448360141   -0.8453675267    0.0536796237
C       -0.5310866953   -1.0908025203   -0.3906955181
C       -1.1013444871    0.2953874572    0.0350125394
C       -0.3885849378    1.5252440524   -0.3356670411
N        0.9370598904    1.5722635730   -0.4230305423
H        2.6281938619    0.4562455848    0.0116626443
H        1.4468034315   -1.7287285631    0.2559032132
H       -0.8921413601   -1.3735455850   -1.3662541172
H       -2.1858729341    0.3434976077   -0.0551617654
H       -0.8950835033    2.4876003215   -0.3862580314
C       -0.5113486852   -0.6868362476    0.9952497850
H       -0.9041414679   -1.3731177674    1.7423707100
13   
From optimize.out: Frame 28 / 34, Energy=    -286.8583509999
C        1.5548818933    0.4008961276   -0.1411207689
C        0.8721302715   -0.8585917674   -0.0072010307
C       -0.5256239059   -1.1074416651   -0.3472297797
C       -1.1248132928    0.2934067855    0.0309422690
C       -0.3913562351    1.5169753965   -0.3121916381
N        0.9262489098    1.5690895502   -0.3811283429
H        2.6284927925    0.4474842977    0.0116710870
H        1.4806343002   -1.7414928170    0.1781796833
H       -0.8668701538   -1.3880055680   -1.3307239799
H       -2.2019195267    0.3234138147   -0.1202474601
H       -0.8868182188    2.4866132954   -0.3629922752
C       -0.5293167866   -0.6216773698    1.0260927979
H       -0.9356700474   -1.3206700802    1.7559494381
13   
From optimize.out: Frame 27 / 34, Energy=    -286.8582735639
C        1.5593424009    0.3837377871   -0.1389550768
C        0.9004257094   -0.8725472036   -0.0564073411
C       -0.5162214921   -1.1230268695   -0.3198667961
C       -1.1537840672    0.2917032244    0.0283742908
C       -0.3956756527    1.5093937871   -0.2868031755
N        0.9161446463    1.5608591521   -0.3317972647
H        2.6338184982    0.4368509085    0.0050359796
H        1.5215006552   -1.7541340845    0.0972269734
H       -0.8459144631   -1.4083718703   -1.3075715691
H       -2.2218010091    0.3015142894   -0.1763149621
H       -0.8802934588    2.4853501469   -0.3459002250
C       -0.5495954762   -0.5533728475    1.0571941443
H       -0.9679462906   -1.2579564200    1.7757850224
13   
From optimize.out: Frame 26 / 34, Energy=    -286.8581878949
C        1.5585579661    0.3662325879   -0.1295588785
C        0.9183563741   -0.8898581928   -0.0985938755
C       -0.5096588452   -1.1443437369   -0.2990782702
C       -1.1847834874    0.2914637757    0.0224548961
C       -0.4029902805    1.5032939241   -0.2617455868
N        0.9054235051    1.5501140140   -0.2785233707
H        2.6344757325    0.4235795891    0.0033505679
H        1.5538035343   -1.7684219737    0.0185737234
H       -0.8282655707   -1.4367269389   -1.2906647423
H       -2.2407936550    0.2784939160   -0.2346452190
H       -0.8731476382    2.4871939415   -0.3254251204
C       -0.5557178470   -0.4735342398    1.0818157468
H       -0.9752597883   -1.1874866662    1.7920401293
13   
From optimize.out: Frame 24 / 34, Energy=    -286.8577421206
C        1.5502109734    0.3479292334   -0.1145623208
C        0.9237875573   -0.9137157371   -0.1291844484
C       -0.5011858172   -1.1765424353   -0.2984272105
C       -1.2169334980    0.2929863224    0.0139850066
C       -0.4121270374    1.5021603142   -0.2373243309
N        0.8946965608    1.5395297480   -0.2273678717
H        2.6267194905    0.4080490886    0.0123540880
H        1.5740593152   -1.7858324106   -0.0390769762
H       -0.8244913688   -1.4752628690   -1.2876178051
H       -2.2600270346    0.2529032466   -0.2850297862
H       -0.8671258222    2.4943991888   -0.2975832011
C       -0.5396983977   -0.3807700791    1.0896729439
H       -0.9478849211   -1.1058336109    1.8001619126
13   
From optimize.out: Frame 23 / 34, Energy=    -286.8553170874
C        1.5405664302    0.3291764408   -0.0998376979
C        0.9273789453   -0.9426155131   -0.1524761781
C       -0.4894456217   -1.2175597474   -0.3171872604
C       -1.2491817232    0.2977122202    0.0068387606
C       -0.4214234159    1.5072758510   -0.2142393525
N        0.8846322426    1.5306858808   -0.1841640606
H        2.6169618442    0.3940264908    0.0287024507
H        1.5908171949   -1.8070951860   -0.0718734574
H       -0.8307959607   -1.5239206878   -1.3011787041
H       -2.2828146147    0.2329118324   -0.3167381285
H       -0.8662794920    2.5056130041   -0.2653349186
C       -0.5126718649   -0.2878900539    1.0844430334
H       -0.9077439640   -1.0183205320    1.8030455134
13   
From optimize.out: Frame 21 / 34, Energy=    -286.8499023062
C        1.5334943754    0.3096460794   -0.0868779100
C        0.9337813738   -0.9742133038   -0.1695192582
C       -0.4790652384   -1.2609717456   -0.3443512391
C       -1.2804400105    0.3058767466    0.0004104871
C       -0.4322162692    1.5178908322   -0.1934261677
N        0.8745421373    1.5244056028   -0.1489002856
H        2.6096797273    0.3820687915    0.0497107646
H        1.6066095394   -1.8328118066   -0.0824791442
H       -0.8448800760   -1.5812285602   -1.3244446455
H       -2.3092320808    0.2214506643   -0.3328956420
H       -0.8720173618    2.5200411836   -0.2303717667
C       -0.4791988503   -0.2009912229    1.0666486662
H       -0.8610572661   -0.9311632613    1.7964961411
13   
From optimize.out: Frame 20 / 34, Energy=    -286.8462926905
C        1.5307635757    0.2895439533   -0.0737880189
C        0.9433440869   -1.0052423896   -0.1813508679
C       -0.4730442401   -1.3003088684   -0.3709391125
C       -1.3095087474    0.3152811034   -0.0065437887
C       -0.4458249875    1.5306733508   -0.1760726428
N        0.8643004328    1.5188306435   -0.1184165195
H        2.6068051138    0.3707859572    0.0756916376
H        1.6215926264   -1.8608054875   -0.0789909119
H       -0.8692033807   -1.6408206302   -1.3503652783
H       -2.3367758120    0.2143087167   -0.3403473600
H       -0.8839022356    2.5349258051   -0.1959313728
C       -0.4412746578   -0.1202858833    1.0380562268
H       -0.8072717744   -0.8468862711    1.7789980090
13   
From optimize.out: Frame 18 / 34, Energy=    -286.8384419732
C        1.5356362823    0.2697563120   -0.0592126545
C        0.9561021966   -1.0326676689   -0.1878899487
C       -0.4716323195   -1.3303985524   -0.3933479474
C       -1.3363700805    0.3239725237   -0.0142260778
C       -0.4630831190    1.5418080556   -0.1631813608
N        0.8545807908    1.5085362123   -0.0901990656
H        2.6115547308    0.3600866927    0.1056226599
H        1.6358664418   -1.8883870467   -0.0658860946
H       -0.9066004272   -1.6966625580   -1.3781650252
H       -2.3644672103    0.2078669078   -0.3420225908
H       -0.9029883627    2.5462675246   -0.1639998127
C       -0.4012389527   -0.0454443267    1.0007729461
H       -0.7473599706   -0.7647340760    1.7517349720
13   
From optimize.out: Frame 17 / 34, Energy=    -286.8334788919
C        1.5547111850    0.2543021162   -0.0454898776
C        0.9729183748   -1.0572547123   -0.1891170800
C       -0.4747258844   -1.3500735055   -0.4114008230
C       -1.3637582338    0.3320121166   -0.0216210471
C       -0.4838125405    1.5505762075   -0.1537584199
N        0.8462961802    1.4910377712   -0.0647594978
H        2.6319123189    0.3534855278    0.1358350740
H        1.6526781825   -1.9155096705   -0.0433994146
H       -0.9595722873   -1.7468816828   -1.4074250215
H       -2.3954512472    0.2013210906   -0.3404656511
H       -0.9292622917    2.5537994584   -0.1353248204
C       -0.3631271686    0.0214118368    0.9619511223
H       -0.6888065878   -0.6882265541    1.7149754566
13   
From optimize.out: Frame 16 / 34, Energy=    -286.8277960833
C        1.5646888382    0.2472162573   -0.0272436362
C        0.9761039690   -1.0864668788   -0.1934203112
C       -0.4709730243   -1.3701411507   -0.4384746332
C       -1.3773033553    0.3498867073   -0.0296863536
C       -0.5018616426    1.5694291756   -0.1684420478
N        0.8438832123    1.4804045891   -0.0508256351
H        2.6353752488    0.3500723566    0.1862482518
H        1.6647639838   -1.9337693353   -0.0236164384
H       -1.0205293392   -1.7858000040   -1.4228717818
H       -2.4249369609    0.1800086306   -0.3072599939
H       -0.9383263287    2.5734921945   -0.1304279867
C       -0.3197792622    0.0767071693    0.9401417279
H       -0.6311053389   -0.6510397116    1.6658788381
13   
From optimize.out: Frame 15 / 34, Energy=    -286.8212172670
C        1.5640414776    0.2469661328   -0.0167132894
C        0.9622620919   -1.1183985949   -0.2242669712
C       -0.4480830120   -1.3986226426   -0.4879605569
C       -1.3733332326    0.3807895314   -0.0426340873
C       -0.5175188832    1.6058512584   -0.2065186847
N        0.8568367813    1.4810426524   -0.0484498258
H        2.6089332346    0.3458961100    0.2557937065
H        1.6717696295   -1.9325004628   -0.0537366827
H       -1.0363559868   -1.8028761101   -1.4018692302
H       -2.4420978787    0.1290534919   -0.2288792305
H       -0.9164341858    2.6133128166   -0.1610908352
C       -0.3082598786    0.1176894232    0.9667194459
H       -0.6217601571   -0.6682036065    1.6496062416
13   
From optimize.out: Frame 12 / 34, Energy=    -286.7954760785
C        1.5534740833    0.2433356633   -0.0075940559
C        0.9457993689   -1.1414461365   -0.2609864092
C       -0.4297792163   -1.4175204259   -0.5452307590
C       -1.3646627292    0.4077048289   -0.0616275493
C       -0.5305896623    1.6412849580   -0.2438524991
N        0.8621372379    1.4855111660   -0.0479681954
H        2.5747744642    0.3367822930    0.3240047927
H        1.6701796329   -1.9332296179   -0.1062046020
H       -1.0130673280   -1.8108300056   -1.3570537232
H       -2.4333036824    0.0953258475   -0.1523892155
H       -0.8974941096    2.6520331505   -0.1984461204
C       -0.3194062703    0.1392530992    0.9897280907
H       -0.6180617890   -0.6982048206    1.6676202455
13   
From optimize.out: Frame 11 / 34, Energy=    -286.7859313292
C        1.5345950387    0.2390942653    0.0034880828
C        0.9296974717   -1.1563833044   -0.2962788917
C       -0.4110625050   -1.4278307121   -0.5977988080
C       -1.3520986569    0.4295357833   -0.0777556037
C       -0.5405166596    1.6743342923   -0.2767396898
N        0.8602500608    1.4942263354   -0.0478852931
H        2.5412196385    0.3253859313    0.3917295494
H        1.6704858904   -1.9382283595   -0.1687141112
H       -0.9862603798   -1.8374843461   -1.3261313068
H       -2.4035281503    0.0775281720   -0.0781354404
H       -0.8854584829    2.6931192558   -0.2392115186
C       -0.3435642372    0.1492933046    1.0147089810
H       -0.6137590283   -0.7225906180    1.6987240501
13   
From optimize.out: Frame 10 / 34, Energy=    -286.7759771218
C        1.5104705233    0.2372547314    0.0197078226
C        0.9121117972   -1.1606774868   -0.3251563925
C       -0.3944751000   -1.4209941441   -0.6422133546
C       -1.3283688607    0.4392002490   -0.0854841158
C       -0.5441768958    1.6985792626   -0.3050187316
N        0.8552956054    1.5073284310   -0.0471876430
H        2.5073863285    0.3128544018    0.4590465707
H        1.6670082478   -1.9428983048   -0.2285592753
H       -0.9815180780   -1.8780976689   -1.3337560576
H       -2.3557061015    0.0616774114   -0.0099144797
H       -0.8811924674    2.7257329045   -0.2855265824
C       -0.3660743445    0.1528249010    1.0471805017
H       -0.6007606542   -0.7327846880    1.7368817376
13   
From optimize.out: Frame 9 / 34, Energy=    -286.7646887803
C        1.4919117642    0.2409169845    0.0353136508
C        0.8839018624   -1.1439766713   -0.3363416913
C       -0.4085928279   -1.3746475693   -0.6747964158
C       -1.2843376074    0.4115289806   -0.0796419560
C       -0.5349765117    1.6864118678   -0.3243419592
N        0.8560548070    1.5181455753   -0.0474486377
H        2.4805299906    0.3009999913    0.5014562638
H        1.6287292758   -1.9393265616   -0.2466772488
H       -1.0020486373   -1.8440184471   -1.3733934589
H       -2.2969653025    0.0141899990    0.0179331656
H       -0.8895158894    2.7077221869   -0.3325405682
C       -0.3531862791    0.1510183093    1.0811306684
H       -0.5715046446   -0.7289646453    1.7793481871
13   
From optimize.out: Frame 7 / 34, Energy=    -286.7344920617
C        1.4794477614    0.2460685295    0.0470543693
C        0.8541134143   -1.1217293926   -0.3393649961
C       -0.4355226761   -1.3193083274   -0.6997817576
C       -1.2390568885    0.3722021735   -0.0704030905
C       -0.5225161983    1.6603143525   -0.3382562273
N        0.8599513081    1.5253834256   -0.0484661645
H        2.4610494537    0.2912601782    0.5268422420
H        1.5793311542   -1.9329360538   -0.2432922206
H       -1.0256590697   -1.7736156448   -1.4132153680
H       -2.2435928314   -0.0430722219    0.0245738689
H       -0.9012866372    2.6701316134   -0.3728369972
C       -0.3258315462    0.1481637890    1.1094107220
H       -0.5404272443   -0.7228624212    1.8177356196
13   
From optimize.out: Frame 6 / 34, Energy=    -286.7147976360
C        1.4669829096    0.2512205106    0.0587954707
C        0.8243236158   -1.0994810112   -0.3423892228
C       -0.4624527718   -1.2639667620   -0.7247701333
C       -1.1937744193    0.3328733141   -0.0611619733
C       -0.5100547822    1.6342149914   -0.3521709019
N        0.8638484096    1.5326214009   -0.0494841694
H        2.4415671049    0.2815204431    0.5522297009
H        1.5299301703   -1.9265449864   -0.2399074465
H       -1.0492689703   -1.7032102975   -1.4530413442
H       -2.1902184184   -0.1003373456    0.0312172862
H       -0.9130567729    2.6325382448   -0.4131359407
C       -0.2984763777    0.1453100002    1.1376928801
H       -0.5093496975   -0.7167585025    1.8561257941
13   
From optimize.out: Frame 4 / 34, Energy=    -286.6659657553
C        1.4545172598    0.2563729100    0.0705368970
C        0.7945325991   -1.0772316218   -0.3454143816
C       -0.4893829610   -1.2086231247   -0.7497614980
C       -1.1484904182    0.2935425666   -0.0519185845
C       -0.4975923027    1.6081138752   -0.3660859127
N        0.8677461170    1.5398594568   -0.0505026679
H        2.4220830047    0.2717808461    0.5776185407
H        1.4805265170   -1.9201533748   -0.2365229454
H       -1.0728781811   -1.6328027418   -1.4928712908
H       -2.1368423304   -0.1576051269    0.0378634722
H       -0.9248262102    2.5949422110   -0.4534372346
C       -0.2711209159    0.1424569873    1.1659770391
H       -0.4782721779   -0.7106528630    1.8945185666
13   
From optimize.out: Frame 3 / 34, Energy=    -286.6361401641
C        1.4420508685    0.2615257077    0.0822785848
C        0.7647405094   -1.0549813283   -0.3484404828
C       -0.5163130759   -1.1532776911   -0.7747557990
C       -1.1032051246    0.2542101109   -0.0426729057
C       -0.4851288036    1.5820111046   -0.3800011827
N        0.8716444354    1.5470975450   -0.0515216761
H        2.4025972213    0.2620414518    0.6030086510
H        1.4311204071   -1.9137612357   -0.2331387376
H       -1.0964865313   -1.5623933456   -1.5327050972
H       -2.0834648600   -0.2148752961    0.0445124823
H       -0.9365948562    2.5573436566   -0.4937406983
C       -0.2437653161    0.1396047971    1.1942630838
H       -0.4471948741   -0.7045454768    1.9329137776
13   
From optimize.out: Frame 1 / 34, Energy=    -286.5637887220
C        1.4274755640    0.2659643091    0.0932900328
C        0.7413765835   -1.0335864752   -0.3526277552
C       -0.5334746552   -1.0949997784   -0.8050386694
C       -1.0648759605    0.2178508062   -0.0239926316
C       -0.4715799662    1.5514082423   -0.3980049483
N        0.8736219192    1.5510895365   -0.0620892043
H        2.3795272504    0.2550857726    0.6292196513
H        1.3880821764   -1.9076785564   -0.2292108562
H       -1.1066130735   -1.4893007586   -1.5817875811
H       -2.0439675898   -0.2513986239    0.0660381887
H       -0.9439519065    2.5154599411   -0.5418144389
C       -0.2186522794    0.1253945184    1.2282974525
H       -0.4269680624   -0.7052889338    1.9777207599
13   
C5H5N+CH->C6H6N atoms 1-13 frame 104 charge -0.000 sz -1.000 sz^2 0.527
C        1.4123046024    0.2668221940    0.0983078140
C        0.7442607056   -1.0222746655   -0.3585244990
C       -0.5173608337   -1.0495906827   -0.8390704378
C       -1.0596522174    0.2028411513    0.0141173388
C       -0.4599049432    1.5193549626   -0.4208598459
N        0.8695589894    1.5446406943   -0.0953295302
H        2.3548328384    0.2583560831    0.6482597803
H        1.3782163899   -1.9046468743   -0.2251900769
H       -1.0757021706   -1.4351061814   -1.6388257466
H       -2.0571995058   -0.2172189608    0.1210596083
H       -0.9364246231    2.4767883404   -0.5941114903
C       -0.2088079772    0.0848022223    1.2660072257
H       -0.4441212548   -0.7247682834    2.0241598597
13   
C5H5N+CH->C6H6N atoms 1-13 frame 105 charge +0.000 sz -1.000 sz^2 0.523
C        1.3972885394    0.2668005643    0.1017029968
C        0.7536501799   -1.0137558688   -0.3645729653
C       -0.4933495835   -1.0085712819   -0.8729484473
C       -1.0628247230    0.1936509140    0.0560837835
C       -0.4489578625    1.4878219720   -0.4443750795
N        0.8640446973    1.5357626105   -0.1335083638
H        2.3303071700    0.2641762473    0.6649551466
H        1.3769532141   -1.9024079648   -0.2211275043
H       -1.0353411723   -1.3871451088   -1.6961520137
H       -2.0833176920   -0.1659268774    0.1830404433
H       -0.9252867778    2.4399999109   -0.6461299824
C       -0.2029725581    0.0383662230    1.3035127490
H       -0.4701934315   -0.7487713404    2.0695192371
13   
C5H5N+CH->C6H6N atoms 1-13 frame 106 charge -0.000 sz -1.000 sz^2 0.519
C        1.3821612834    0.2731458349    0.1022626410
C        0.7584425065   -1.0111889646   -0.3429216813
C       -0.4926153146   -1.0103890135   -0.8353757029
C       -1.0623033738    0.2119802980    0.0535970100
C       -0.4419990069    1.4981203456   -0.4509185172
N        0.8554590857    1.5377153163   -0.1568528369
H        2.3197533806    0.2784081068    0.6536816903
H        1.3890201582   -1.8942179347   -0.1996405681
H       -1.0355148985   -1.4087893791   -1.6556997776
H       -2.0943869438   -0.1059412614    0.1852852505
H       -0.9098811330    2.4553721658   -0.6482330933
C       -0.1930176463   -0.0144764538    1.2766982282
H       -0.4751180975   -0.8097390604    2.0181173572
13   
C5H5N+CH->C6H6N atoms 1-13 frame 108 charge +0.000 sz -1.000 sz^2 0.505
C        1.3670113220    0.2811206462    0.1020954659
C        0.7620553377   -1.0101492883   -0.3141790366
C       -0.4978464452   -1.0231869668   -0.7795034436
C       -1.0608355591    0.2373567133    0.0397181514
C       -0.4360650440    1.5191366954   -0.4531091300
N        0.8460889431    1.5424437769   -0.1763863172
H        2.3127845580    0.2947910042    0.6352436327
H        1.4044998313   -1.8845064007   -0.1736961245
H       -1.0460772468   -1.4482676145   -1.5902013004
H       -2.1015946809   -0.0437496001    0.1722204829
H       -0.8933871386    2.4841076607   -0.6375412910
C       -0.1820115760   -0.0689402651    1.2334063864
H       -0.4746223014   -0.8801563612    1.9419325241
13   
C5H5N+CH->C6H6N atoms 1-13 frame 110 charge -0.000 sz -1.000 sz^2 0.501
C        1.3518610290    0.2890957343    0.1019284365
C        0.7656690836   -1.0091104873   -0.2854358662
C       -0.5030762754   -1.0359868748   -0.7236294348
C       -1.0593679732    0.2627343055    0.0258399665
C       -0.4301309433    1.5401536528   -0.4552993948
N        0.8367179018    1.5471729237   -0.1959204159
H        2.3058152934    0.3111748804    0.6168047541
H        1.4199807381   -1.8747955157   -0.1477515771
H       -1.0566386625   -1.4877488636   -1.5247010907
H       -2.1088025750    0.0184444130    0.1591582024
H       -0.8768922283    2.5128435584   -0.6268488227
C       -0.1710065460   -0.1234043813    1.1901114664
H       -0.4741288421   -0.9505733454    1.8657437764
13   
C5H5N+CH->C6H6N atoms 1-13 frame 111 charge +0.000 sz -1.000 sz^2 0.507
C        1.3367104367    0.2970710819    0.1017615505
C        0.7692837659   -1.0080725581   -0.2566922408
C       -0.5083047412   -1.0487886935   -0.6677537650
C       -1.0579006307    0.2881130259    0.0119624875
C       -0.4241967165    1.5611711778   -0.4574893145
N        0.8273459585    1.5519027409   -0.2154550969
H        2.2988455894    0.3275596918    0.5983650600
H        1.4354628748   -1.8650852977   -0.1218070187
H       -1.0671990769   -1.5272330258   -1.4591992329
H       -2.1160106162    0.0806406650    0.1460984544
H       -0.8603964152    2.5415798083   -0.6161557241
C       -0.1600026240   -0.1778687144    1.1468135551
H       -0.4736378046   -1.0209899021    1.7895512854
13   
C5H5N+CH->C6H6N atoms 1-13 frame 112 charge +0.000 sz -1.000 sz^2 0.520
C        1.3215595804    0.3050466701    0.1015948053
C        0.7728994074   -1.0070354975   -0.2279482371
C       -0.5135317753   -1.0615923763   -0.6118765327
C       -1.0564335469    0.3134928211   -0.0019142503
C       -0.4182623763    1.5821892270   -0.4596788913
N        0.8179731103    1.5566332114   -0.2349903206
H        2.2918754497    0.3439453915    0.5799245585
H        1.4509462364   -1.8553757669   -0.0958625487
H       -1.0777584176   -1.5667199930   -1.3936958220
H       -2.1232187929    0.1428390313    0.1330412886
H       -0.8438997148    2.5703163545   -0.6054620335
C       -0.1489998823   -0.2323331659    1.1035127470
H       -0.4731492782   -1.0914059071    1.7133552367
13   
C5H5N+CH->C6H6N atoms 1-13 frame 114 charge +0.000 sz -1.000 sz^2 0.555
C        1.2929060379    0.2947974254    0.1203134457
C        0.7534044004   -1.0149820154   -0.2267142339
C       -0.5234678148   -1.0631174354   -0.6467510191
C       -1.0491551846    0.3179381684    0.0107493158
C       -0.4231968236    1.5781727865   -0.4684579984
N        0.8079547505    1.5489518249   -0.2369568630
H        2.2528287045    0.3269356303    0.6160768007
H        1.4258063434   -1.8653228534   -0.0837549361
H       -1.0589819373   -1.5704006406   -1.4467335232
H       -2.1165730223    0.1590937930    0.1617008591
H       -0.8515760558    2.5642155821   -0.6219612793
C       -0.1064851386   -0.2137620996    1.0977489750
H       -0.4034642596   -1.0625201662    1.7247404567
13   
C5H5N+CH->C6H6N atoms 1-13 frame 115 charge -0.000 sz -1.000 sz^2 0.576
C        1.2693340242    0.2809988709    0.1397445662
C        0.7317878748   -1.0236184354   -0.2369554978
C       -0.5316514391   -1.0595654948   -0.7052188497
C       -1.0422138034    0.3123679002    0.0294102900
C       -0.4306790350    1.5655959700   -0.4766624861
N        0.8013463919    1.5391098508   -0.2311634755
H        2.2152264593    0.3027735751    0.6608651867
H        1.3935945619   -1.8795037262   -0.0816258199
H       -1.0353250918   -1.5583870358   -1.5278479218
H       -2.1068104313    0.1509880600    0.1965812276
H       -0.8661267163    2.5463896565   -0.6433143760
C       -0.0669119677   -0.1727268948    1.1091369253
H       -0.3315708276   -1.0044222964    1.7670502310
13   
C5H5N+CH->C6H6N atoms 1-13 frame 116 charge +0.000 sz -1.000 sz^2 0.609
C        1.2457616571    0.2672004832    0.1591753202
C        0.7101716097   -1.0322551733   -0.2471973420
C       -0.5398336798   -1.0560146085   -0.7636870246
C       -1.0352728586    0.3067981277    0.0480716215
C       -0.4381608568    1.5530190920   -0.4848665941
N        0.7947380566    1.5292679569   -0.2253698245
H        2.1776233163    0.2786119722    0.7056529713
H        1.3613827146   -1.8936847940   -0.0794976518
H       -1.0116664596   -1.5463745964   -1.6089620463
H       -2.0970486892    0.1428832185    0.2314620636
H       -0.8806765420    2.5285634410   -0.6646669472
C       -0.0273393458   -0.1316915223    1.1205250175
H       -0.2596789224   -0.9463235971    1.8093604364
13   
From optimize.out: Frame 1 / 31, Energy=    -286.5887998382
C        1.2221889394    0.2534022591    0.1786057041
C        0.6885556058   -1.0408922180   -0.2574397621
C       -0.5480145398   -1.0524647443   -0.8221555308
C       -1.0283323504    0.3012288411    0.0667332987
C       -0.4456422889    1.5404421600   -0.4930703317
N        0.7881297461    1.5194261422   -0.2195759154
H        2.1400192794    0.2544508102    0.7504401463
H        1.3291708031   -1.9078660493   -0.0773704268
H       -0.9880060469   -1.5343632882   -1.6900758800
H       -2.0872877961    0.1347792507    0.2663433469
H       -0.8952255330    2.5107369530   -0.6860190054
C        0.0122327266   -0.0906560024    1.1319132671
H       -0.1877885455   -0.8882241141    1.8516710889
13   
From optimize.out: Frame 2 / 31, Energy=    -286.6803572408
C        1.2060728221    0.2404939576    0.1976807258
C        0.6735101824   -1.0479823402   -0.2705252256
C       -0.5524972120   -1.0451375154   -0.8796702854
C       -1.0262609772    0.2926212319    0.0878371068
C       -0.4531827415    1.5240523924   -0.4984852918
N        0.7849053334    1.5087565966   -0.2157135348
H        2.1134510247    0.2322629057    0.7893160030
H        1.3050210127   -1.9204544293   -0.0847749398
H       -0.9624719420   -1.5156101864   -1.7703671853
H       -2.0835967791    0.1265647080    0.2986566264
H       -0.9107783759    2.4872551254   -0.7095437241
C        0.0391405158   -0.0524782729    1.1521070250
H       -0.1333128634   -0.8303441735    1.9034826998
13   
From optimize.out: Frame 3 / 31, Energy=    -286.7204458581
C        1.2307535450    0.2371966071    0.2069089449
C        0.6947763234   -1.0449903260   -0.2908599868
C       -0.5382680706   -1.0238286556   -0.9080231787
C       -1.0471779430    0.2739405291    0.1109100339
C       -0.4577371547    1.4974369185   -0.4889085549
N        0.7984287785    1.4989372082   -0.2222848854
H        2.1484367959    0.2286074733    0.7845845452
H        1.3278837049   -1.9203786878   -0.1322327111
H       -0.9394669790   -1.4743559610   -1.8122606059
H       -2.1090403381    0.1213916830    0.3053636616
H       -0.9241748577    2.4482493856   -0.7327727848
C       -0.0030364182   -0.0437528150    1.2035392540
H       -0.1813773866   -0.7984533593    1.9760362678
13   
From optimize.out: Frame 5 / 31, Energy=    -286.7277716502
C        1.2665845650    0.2384779774    0.2101929657
C        0.7261170899   -1.0385770053   -0.3097588536
C       -0.5195485553   -1.0014512189   -0.9185517159
C       -1.0728762882    0.2552031101    0.1298333256
C       -0.4601132326    1.4724032021   -0.4753431375
N        0.8158030857    1.4915639424   -0.2316524997
H        2.2007292725    0.2332020418    0.7632969154
H        1.3647911928   -1.9152165657   -0.1856611727
H       -0.9224102744   -1.4328734530   -1.8297075515
H       -2.1407713928    0.1185521844    0.3003170066
H       -0.9338327356    2.4113451342   -0.7509064014
C       -0.0640130854   -0.0487633335    1.2565384986
H       -0.2604596417   -0.7838660160    2.0414026204
13   
From optimize.out: Frame 6 / 31, Energy=    -286.7581535782
C        1.2861289031    0.2461424454    0.2275518373
C        0.7463882159   -1.0319675508   -0.2999821949
C       -0.5140958525   -0.9799290653   -0.8921252432
C       -1.0983304951    0.2516553491    0.1373335283
C       -0.4586213471    1.4581511992   -0.4723182864
N        0.8330090529    1.4843188488   -0.2610022540
H        2.2407967724    0.2546095142    0.7469333405
H        1.3906172544   -1.9087659656   -0.2070498908
H       -0.9227905078   -1.4054252203   -1.8040520250
H       -2.1691835540    0.1493937698    0.3068458540
H       -0.9331345167    2.3901108495   -0.7739087341
C       -0.1003506619   -0.0884400793    1.2544818857
H       -0.3004332635   -0.8198540946    2.0372921826
13   
From optimize.out: Frame 8 / 31, Energy=    -286.7932379459
C        1.2716504148    0.2558482088    0.2483004306
C        0.7370941741   -1.0301367665   -0.2624573299
C       -0.5294344266   -0.9752336777   -0.8420104973
C       -1.1034270930    0.2679934423    0.1251453756
C       -0.4534634281    1.4679504102   -0.4833402552
N        0.8370725775    1.4835462992   -0.2913859457
H        2.2367481626    0.2797265174    0.7473106886
H        1.3823678102   -1.9059050309   -0.1730766566
H       -0.9436259569   -1.4150781261   -1.7470437004
H       -2.1714851210    0.1959920373    0.3208291976
H       -0.9211254544    2.4035440388   -0.7850096964
C       -0.0793618723   -0.1397675279    1.1884866650
H       -0.2630097868   -0.8884798247    1.9542517243
13   
From optimize.out: Frame 10 / 31, Energy=    -286.8106464629
C        1.2547700406    0.2664757826    0.2649161240
C        0.7158659127   -1.0294320408   -0.2175080145
C       -0.5530252950   -0.9701767139   -0.7973469603
C       -1.0980558802    0.2783618458    0.1080881663
C       -0.4469007615    1.4837998451   -0.4888879943
N        0.8390269608    1.4906011433   -0.3134136610
H        2.2319703757    0.3011440797    0.7384697984
H        1.3589741049   -1.9059546290   -0.1264150701
H       -0.9648569613   -1.4265437544   -1.6970548637
H       -2.1639156567    0.2308081676    0.3231037334
H       -0.9127871165    2.4204180836   -0.7902951806
C       -0.0478260497   -0.1891571287    1.1214034381
H       -0.2132396737   -0.9503446809    1.8749404845
13   
From optimize.out: Frame 12 / 31, Energy=    -286.8228726714
C        1.2362929095    0.2775116242    0.2765332025
C        0.6836165427   -1.0299003780   -0.1672670497
C       -0.5837982825   -0.9650030222   -0.7603978661
C       -1.0823647022    0.2821821314    0.0869477435
C       -0.4392407584    1.5049855969   -0.4886266493
N        0.8387529934    1.5052230012   -0.3259053543
H        2.2266902711    0.3177647189    0.7207431287
H        1.3214203023   -1.9089445691   -0.0692232106
H       -0.9854418182   -1.4392767010   -1.6566292781
H       -2.1467387931    0.2519932725    0.3134251927
H       -0.9085713982    2.4399394119   -0.7894392076
C       -0.0071795160   -0.2341521990    1.0565279586
H       -0.1534377505   -1.0023228877    1.8033113897
13   
From optimize.out: Frame 14 / 31, Energy=    -286.8335511041
C        1.2174634039    0.2835667005    0.2927070929
C        0.6603101268   -1.0324498413   -0.1338330660
C       -0.6096270372   -0.9633989608   -0.7309740584
C       -1.0670646857    0.2811458181    0.0673194449
C       -0.4325508431    1.5208001682   -0.4863801947
N        0.8362530618    1.5174104950   -0.3270120377
H        2.2198415245    0.3276369674    0.7098335763
H        1.2982352968   -1.9106608691   -0.0415039227
H       -1.0055446143   -1.4453376871   -1.6265052026
H       -2.1315593398    0.2643629579    0.2967657688
H       -0.9057709000    2.4517727155   -0.7923312906
C        0.0255752468   -0.2636672614    1.0122792017
H       -0.1055612405   -1.0311812029    1.7596346880
13   
From optimize.out: Frame 16 / 31, Energy=    -286.8367270723
C        1.1976428935    0.2688288488    0.3273598750
C        0.6746436551   -1.0435599872   -0.1708897803
C       -0.6143211853   -0.9766289282   -0.7334790376
C       -1.0537671215    0.2600090785    0.0544490468
C       -0.4300493949    1.5139597682   -0.4759638438
N        0.8245918844    1.5192042590   -0.2809083172
H        2.2066633042    0.3092956868    0.7274528004
H        1.3351721021   -1.9070560489   -0.1366188577
H       -1.0231453852   -1.4235976645   -1.6398319654
H       -2.1250384444    0.2398900733    0.2515910319
H       -0.9089055179    2.4314492435   -0.8106848687
C        0.0248117552   -0.2282909345    1.0546251834
H       -0.1082985453   -0.9635033948    1.8328987333
13   
From optimize.out: Frame 19 / 31, Energy=    -286.8375837916
C        1.1886521608    0.2575563693    0.3538140276
C        0.6872267782   -1.0520472739   -0.2015012771
C       -0.6093933148   -0.9793975604   -0.7536134511
C       -1.0524602789    0.2415181907    0.0516653804
C       -0.4313768924    1.5014607006   -0.4672471026
N        0.8178522135    1.5139079287   -0.2546338266
H        2.2002705628    0.2919883826    0.7469987207
H        1.3600447692   -1.9077488685   -0.2054792353
H       -1.0223514318   -1.3994943642   -1.6705941948
H       -2.1251573235    0.2299934536    0.2402567516
H       -0.9198356266    2.4032155680   -0.8297920659
C        0.0190453097   -0.2048247464    1.0866498779
H       -0.1125169262   -0.8961277802    1.9034763950
13   
From optimize.out: Frame 21 / 31, Energy=    -286.8380536851
C        1.2056345877    0.2563844668    0.3599119524
C        0.6920424595   -1.0537173630   -0.2103119755
C       -0.5830444917   -0.9550630516   -0.8145474779
C       -1.0801499974    0.2305452162    0.0725685685
C       -0.4416729331    1.4768843513   -0.4630295574
N        0.8237421479    1.4921130203   -0.2804895062
H        2.2107589299    0.2792787764    0.7693047533
H        1.3501786652   -1.9196132383   -0.2006902037
H       -0.9768159450   -1.3711648828   -1.7410816080
H       -2.1405197599    0.2593160395    0.3141781613
H       -0.9498942843    2.3574128228   -0.8502726596
C        0.0045289384   -0.2163672696    1.0856308272
H       -0.1147883172   -0.8360088882    1.9588287257
13   
From optimize.out: Frame 28 / 31, Energy=    -286.8383040435
C        1.2138947998    0.2644719324    0.3727584338
C        0.6851473061   -1.0517484347   -0.2102845554
C       -0.5808811113   -0.9334901801   -0.8524778708
C       -1.0926641394    0.2185573237    0.0874805372
C       -0.4416567139    1.4606563713   -0.4607241345
N        0.8323115118    1.4914333279   -0.2878982535
H        2.2116595111    0.2711700246    0.8004394386
H        1.3397315300   -1.9187573925   -0.2091027115
H       -0.9631493134   -1.3404129437   -1.7871720879
H       -2.1428557019    0.2851965593    0.3734421183
H       -0.9680172087    2.3069428518   -0.8961626146
C        0.0066972346   -0.2643864253    1.0663523367
H       -0.1002177045   -0.7896330147    2.0033493636
13   
From optimize.out: Frame 29 / 31, Energy=    -286.8383063305
C        1.2049683959    0.2780448635    0.3894642530
C        0.6571397026   -1.0589811199   -0.1841614675
C       -0.5975181794   -0.9040617163   -0.8618177555
C       -1.0767643130    0.2024158371    0.0901303924
C       -0.4383834935    1.4658055726   -0.4448882684
N        0.8299146039    1.5067091518   -0.2778040064
H        2.2077023947    0.2615352160    0.8031607112
H        1.3184799321   -1.9202077845   -0.2144266934
H       -0.9731404294   -1.2790925893   -1.8109068341
H       -2.1271622072    0.2674445307    0.3806241354
H       -0.9720838812    2.2661193405   -0.9548311552
C        0.0371619567   -0.3244586718    1.0498835757
H       -0.0703144821   -0.7612726303    2.0355731129
13   
From optimize.out: Frame 30 / 31, Energy=    -286.8383070666
C        1.2079652134    0.2832881942    0.3765801599
C        0.6437923661   -1.0848842336   -0.1631086494
C       -0.5908751487   -0.8862196454   -0.8862045961
C       -1.0755960169    0.1919175004    0.0926733269
C       -0.4505352991    1.4752370527   -0.4209772341
N        0.8216216400    1.4977649411   -0.3043969851
H        2.2084721931    0.2461984829    0.7929068265
H        1.3020210212   -1.9484494544   -0.1809153544
H       -0.9427585633   -1.2124941643   -1.8604221635
H       -2.1256761317    0.2316616232    0.3903990165
H       -0.9870021545    2.2550284910   -0.9590841820
C        0.0489545738   -0.3275603205    1.0589341104
H       -0.0603836934   -0.7214884674    2.0636157244
13   
From optimize.out: Frame 1 / 2, Energy=    -286.8383302656
C        1.2023640827    0.2879928461    0.3827052022
C        0.6317355245   -1.1045674653   -0.1506886520
C       -0.6176198843   -0.9072132295   -0.8726001464
C       -1.0788684607    0.1774554208    0.0985442753
C       -0.4490304279    1.4618269149   -0.4273401279
N        0.8286478704    1.4942236175   -0.3122467265
H        2.2050873932    0.2369218955    0.7946754324
H        1.3122602734   -1.9493503009   -0.1903344472
H       -0.9096619327   -1.1112908211   -1.9000569403
H       -2.1279224688    0.2118404987    0.4006459437
H       -0.9938951028    2.2279686882   -0.9767549243
C        0.0451131463   -0.3542314655    1.0595977173
H       -0.0482100134   -0.6715765993    2.0938533938
