13   
Frame   0 IRC: Energy =  -286.8735100000 ; +0.0000 kcal/mol
C        1.1275036404    0.1918961657    0.4734165392
C        0.8557349672   -0.9780042488   -0.4865106154
C       -0.4691580315   -0.9890670536   -0.7199582506
C       -1.0737200572    0.1679043627    0.1038091570
C       -0.4313808012    1.4532337658   -0.4540703786
N        0.8314113192    1.4878430686   -0.2628465899
H        2.1022023700    0.2174366231    0.9557406162
H        1.6130165960   -1.6353953739   -0.8983655343
H       -1.0316788945   -1.6451399926   -1.3746742822
H       -2.1539214513    0.1642681282    0.2449304696
H       -0.9673872875    2.2451143083   -0.9725999562
C       -0.1362539921    0.0377689185    1.3094707556
H       -0.2663683774   -0.7178586718    2.0816580698
13   
Frame   1 IRC: Energy =  -286.8718000728 ; +1.0730 kcal/mol
C        1.1298472949    0.2005444210    0.4599111022
C        0.8518558529   -0.9921020197   -0.4701832857
C       -0.4672137886   -0.9718412758   -0.7454125817
C       -1.0723939270    0.1676904463    0.1028987841
C       -0.4499246661    1.4602565917   -0.4479859795
N        0.8177073504    1.4937373626   -0.2760650753
H        2.1149839592    0.2382436032    0.9201178486
H        1.5892095215   -1.7254084225   -0.7741855792
H       -1.0152719466   -1.5804200478   -1.4558807622
H       -2.1502181590    0.1425842406    0.2545228357
H       -1.0018493949    2.2530120935   -0.9472289111
C       -0.1215943599    0.0371320284    1.3026615002
H       -0.2251377369   -0.7234290216    2.0768301040
13   
Frame   2 IRC: Energy =  -286.8669475167 ; +4.1180 kcal/mol
C        1.1317686050    0.2089585622    0.4435580078
C        0.8423967815   -0.9893623651   -0.4782649132
C       -0.4686111645   -0.9515332727   -0.7950961573
C       -1.0713703488    0.1627450189    0.0972791180
C       -0.4653220378    1.4658299164   -0.4329977506
N        0.8026105655    1.5058129331   -0.2686693972
H        2.1248112701    0.2524646215    0.8850727124
H        1.5562168058   -1.7887765010   -0.6335909038
H       -1.0057378792   -1.5378241547   -1.5374752395
H       -2.1452212514    0.1317192756    0.2765444098
H       -1.0210197629    2.2479193889   -0.9463198249
C       -0.1050113515    0.0097937161    1.2914373811
H       -0.1755102319   -0.7177471392    2.0985225573
13   
Frame   3 IRC: Energy =  -286.8559809325 ; +10.9997 kcal/mol
C        1.1508689602    0.2422084997    0.4226952136
C        0.8127970133   -0.9863093271   -0.4320134023
C       -0.4908293413   -0.9341201979   -0.8343122516
C       -1.0733348268    0.1579418718    0.0864856934
C       -0.4710671835    1.4709133308   -0.4213881722
N        0.8001844632    1.5222579542   -0.2659130151
H        2.1402279037    0.2708150290    0.8784290711
H        1.5232538927   -1.7925398375   -0.5360390664
H       -1.0091977737   -1.5238108269   -1.5853301124
H       -2.1424446468    0.1344835954    0.2965942833
H       -1.0249098284    2.2413259857   -0.9540162445
C       -0.0690432576   -0.1046611716    1.2234552645
H       -0.1465053749   -0.6985049056    2.1213527384
13   
Frame   4 IRC: Energy =  -286.8479638122 ; +16.0305 kcal/mol (Transition State)
C        1.1699587100    0.2897205995    0.4116867027
C        0.7814987216   -0.9878331679   -0.3333972969
C       -0.5232860863   -0.9100029724   -0.8615926471
C       -1.0779423877    0.1570643384    0.0775315877
C       -0.4742974430    1.4728124985   -0.4188745902
N        0.7998555349    1.5358732301   -0.2655692732
H        2.1502399444    0.2811634039    0.8782971985
H        1.5042807502   -1.7859850140   -0.4841580868
H       -1.0155220001   -1.5178237869   -1.6070164247
H       -2.1425068507    0.1373391152    0.3083733906
H       -1.0269044608    2.2381973479   -0.9594452755
C       -0.0177422260   -0.2283190149    1.1389595406
H       -0.1276322066   -0.6822065774    2.1152051742
13   
Frame   5 IRC: Energy =  -286.8545148353 ; +11.9197 kcal/mol
C        1.1862515091    0.3338691562    0.4076904917
C        0.7388593754   -1.0064651334   -0.2339680481
C       -0.5399147575   -0.8798905789   -0.8995780875
C       -1.0799790187    0.1560002189    0.0699504630
C       -0.4788601603    1.4757816046   -0.4170026208
N        0.7936942275    1.5525310735   -0.2612428295
H        2.1631154269    0.2967966374    0.8755128158
H        1.4806774347   -1.7812877845   -0.4203508961
H       -1.0252037196   -1.5124234128   -1.6271542729
H       -2.1402993950    0.1410741006    0.3231758854
H       -1.0309040569    2.2357096123   -0.9652444379
C        0.0320393624   -0.3365513277    1.0608312630
H       -0.0994762281   -0.6751441662    2.0873802740
13   
Frame   6 IRC: Energy =  -286.8574265701 ; +10.0925 kcal/mol
C        1.1945677088    0.3508196398    0.4001701753
C        0.7195001378   -1.0217578039   -0.2106509174
C       -0.5356241457   -0.8643747134   -0.9334576922
C       -1.0759577124    0.1569218988    0.0618050538
C       -0.4902396726    1.4838894938   -0.4121062416
N        0.7826013443    1.5689533781   -0.2580943922
H        2.1812675961    0.3324500498    0.8503406632
H        1.4375097194   -1.8302490957   -0.2861554115
H       -1.0301680194   -1.4782733820   -1.6723658633
H       -2.1309490350    0.1345039323    0.3383695911
H       -1.0495894252    2.2388257563   -0.9594392778
C        0.0501233245   -0.3535699460    1.0324905830
H       -0.0530418206   -0.7181392078    2.0490937296
13   
Frame   7 IRC: Energy =  -286.8584684737 ; +9.4387 kcal/mol
C        1.1958010480    0.3541543879    0.3923741529
C        0.7056040436   -1.0433436193   -0.1865720024
C       -0.5568173708   -0.9069088245   -0.8942971803
C       -1.0790446475    0.1472616881    0.0743040164
C       -0.5002264223    1.4697655013   -0.4204878641
N        0.7745124631    1.5570171686   -0.2809010367
H        2.1907082056    0.3434136662    0.8241042634
H        1.4218415941   -1.8559528510   -0.2359819272
H       -0.9767055350   -1.3695370976   -1.7782434438
H       -2.1314707100    0.1322862840    0.3618592273
H       -1.0676884488    2.2261152826   -0.9584920266
C        0.0592586364   -0.3454626476    1.0423877087
H       -0.0357728564   -0.7088089388    2.0599461125
13   
Frame   8 IRC: Energy =  -286.8593270000 ; +8.9000 kcal/mol
C        1.1921562776    0.3473297423    0.3862301082
C        0.6895085021   -1.0654228600   -0.1619850445
C       -0.5726658635   -0.9313814153   -0.8727470668
C       -1.0834212480    0.1350959609    0.0922735442
C       -0.5118158617    1.4488935158   -0.4288711788
N        0.7640886679    1.5377815011   -0.3047743081
H        2.1943850376    0.3406009617    0.8003429146
H        1.4084564521   -1.8761584130   -0.2061662775
H       -0.9039500061   -1.2294807272   -1.8626967420
H       -2.1329233808    0.1247318747    0.3919017352
H       -1.0864934924    2.1947849615   -0.9738844555
C        0.0629944951   -0.3455149695    1.0561239523
H       -0.0203195799   -0.6812601331    2.0842528188
