13   
From qcts2.out: Frame 3 / 3, Energy=    -286.8561843435
C        1.5992435138    0.3891374047   -0.1740460005
C        0.9432099013   -0.8439965047   -0.1758706133
C       -0.5058459575   -0.9913445712   -0.4032809738
C       -1.1192468006    0.3455320194    0.0854966315
C       -0.3451703902    1.5645374723   -0.2761559942
N        0.9503535110    1.5837541910   -0.3612214507
H        2.6669293084    0.4397894493    0.0132384253
H        1.5256448803   -1.7541654733   -0.0539166813
H       -0.9965411772   -1.7333228739   -1.0259088169
H       -2.2029032288    0.4316674699    0.0005642690
H       -0.8899257434    2.4717209768   -0.5367960399
C       -0.6318629585   -0.6956749169    1.0150230651
H       -0.9938848585   -1.2076346429    1.8928741791
