13   
From optimize.out: Frame 1 / 3, Energy=    -286.7710612984
C        1.3457725428    0.0073023850    0.1999493065
C        1.0897040707   -1.3380161626    0.7559496441
C        2.0497806694   -2.1088063263    1.2314553032
C       -1.8068384926    1.7950048493   -0.3598067106
C       -0.8784330528    0.6053047176   -0.3790258284
N        0.5249742205    0.8575065954   -0.2942932655
H        2.3975221502    0.3045970255    0.2164185975
H        0.0602872284   -1.7091261781    0.7679563784
H        2.1351691611   -3.0933474343    1.6736547024
H       -2.2281359478    2.5676413478    0.2658653685
H       -1.2462033287   -0.3462542473    0.0201016180
C       -1.6367890571    1.2439567461   -1.5161133536
H       -1.8068101641    1.2142366820   -2.5821117604
13   
From optimize.out: Frame 2 / 3, Energy=    -286.7710640273
C        1.3479468505    0.0070700476    0.1954079862
C        1.0886530834   -1.3366280838    0.7540428628
C        2.0463038860   -2.1068323485    1.2354731995
C       -1.8061331506    1.7910231398   -0.3563236898
C       -0.8752589389    0.6033128173   -0.3838589270
N        0.5280529524    0.8578781332   -0.2989313970
H        2.3997139883    0.3039007520    0.2153262274
H        0.0583738035   -1.7055652227    0.7659232253
H        2.1290065704   -3.0895237953    1.6822951773
H       -2.2266940242    2.5600113211    0.2742458634
H       -1.2390483944   -0.3504542943    0.0137832821
C       -1.6387854899    1.2456635009   -1.5159490977
H       -1.8121311364    1.2201440329   -2.5814347124
