13   
From optimize.out: Frame 1 / 3, Energy=    -286.8584658956
C        1.5769931546    0.4217774915   -0.1549896571
C        0.8158058667   -0.8235355347    0.1103114408
C       -0.5519786044   -0.9766209081   -0.5325502196
C       -1.1156922764    0.3314744816    0.0000518424
C       -0.3591195862    1.5762163585   -0.2744746369
N        0.9707818556    1.5927105278   -0.3425084205
H        2.6642519178    0.4004767624   -0.2058092217
H        1.3911211162   -1.7381615689    0.2460841395
H       -0.9905227441   -1.7639841934   -1.1300198649
H       -2.2008368453    0.4107357891    0.0431382743
H       -0.8872456497    2.5136200593   -0.4391304404
C       -0.4776849850   -0.7129891716    0.9008822705
H       -0.8358732199   -1.2317200934    1.7790144936
13   
From optimize.out: Frame 2 / 3, Energy=    -286.8584720586
C        1.5767942022    0.4213140527   -0.1574956754
C        0.8156248600   -0.8230222280    0.1096342307
C       -0.5525143462   -0.9775877193   -0.5328835920
C       -1.1159282584    0.3309922068   -0.0016353689
C       -0.3588192377    1.5756861289   -0.2753287497
N        0.9708581386    1.5920544871   -0.3454554075
H        2.6638581729    0.4004902664   -0.2040334436
H        1.3918069095   -1.7364781747    0.2475358371
H       -0.9904153990   -1.7661417855   -1.1288998380
H       -2.2009218315    0.4098385680    0.0414166635
H       -0.8859429205    2.5148708566   -0.4319417993
C       -0.4779344895   -0.7122320684    0.9001140947
H       -0.8364658007   -1.2297845905    1.7789730485
