13   
From qcts2.out: Frame 3 / 3, Energy=    -286.8682123023
C        1.2313758266    0.2142611559    0.1524039155
C        1.1145373974   -1.0777610104   -0.5897552320
C       -0.0604773198   -1.5186791363   -0.1330565254
C       -1.2272753680    0.7500133680    0.2783094972
C       -0.4047181732    1.6027459984   -0.5114561074
N        0.8849198766    1.3476749081   -0.5507779952
H        1.9214632669    0.3218558753    0.9923024256
H        1.7803665816   -1.4663203270   -1.3544214470
H       -0.5645965413   -2.4627085528   -0.3461203301
H       -2.1905405040    1.1014333507    0.6400695514
H       -0.7881093658    2.4723078462   -1.0409395662
C       -0.6386931659   -0.4585541492    0.7604872407
H       -1.0582525105   -0.8262693268    1.7029545730
