13   
Frame   0 IRC: Energy =  -286.8593670000 ; +0.0000 kcal/mol
C        1.2458044807    0.2522059688    0.2545122815
C        0.5763958154   -1.1271830118   -0.2009342833
C       -0.7352018094   -0.8930774235   -0.7888143033
C       -1.0552696931    0.2154987193    0.2121512830
C       -0.4469462702    1.4697737773   -0.4020261845
N        0.8380542032    1.4588163235   -0.4189275106
H        2.2842794435    0.1717543832    0.5556121722
H        1.2221148521   -1.9923640268   -0.3047910022
H       -1.1449988548   -1.0966569778   -1.7747884044
H       -2.0634897396    0.2895127586    0.6238250247
H       -1.0208474823    2.2406054957   -0.9115746688
C        0.1465718999   -0.3415270865    1.0572830721
H        0.1535331544   -0.6473589005    2.0984725241
13   
Frame   1 IRC: Energy =  -286.8593610000 ; +0.0038 kcal/mol
C        1.2456760143    0.2525644562    0.2546688146
C        0.5761886053   -1.1271946505   -0.2009814515
C       -0.7354309473   -0.8932353940   -0.7887246821
C       -1.0555274866    0.2156738467    0.2115483501
C       -0.4471607292    1.4696953031   -0.4006227585
N        0.8378872176    1.4586461488   -0.4198347013
H        2.2841459703    0.1717799152    0.5556704369
H        1.2222015562   -1.9924690130   -0.3049391110
H       -1.1445786027   -1.0954300012   -1.7748708868
H       -2.0629143437    0.2895212729    0.6241476694
H       -1.0204258422    2.2391904906   -0.9122407405
C        0.1461823222   -0.3410997638    1.0573942019
H        0.1537562659   -0.6476426109    2.0987848589
13   
Frame   2 IRC: Energy =  -286.8593530000 ; +0.0088 kcal/mol
C        1.2457516760    0.2527091999    0.2547908024
C        0.5761264386   -1.1271344192   -0.2009912822
C       -0.7356905049   -0.8933641154   -0.7889123414
C       -1.0557657359    0.2158824614    0.2111103610
C       -0.4478728344    1.4694411706   -0.3998068486
N        0.8384452254    1.4586704595   -0.4203118059
H        2.2840429836    0.1717993126    0.5556623078
H        1.2222974790   -1.9925865383   -0.3050023822
H       -1.1443541635   -1.0949828447   -1.7746784278
H       -2.0625719123    0.2895139349    0.6242281770
H       -1.0202310891    2.2387126451   -0.9124772135
C        0.1459638365   -0.3408669429    1.0573440986
H        0.1538586010   -0.6477943236    2.0990445549
13   
Frame   3 IRC: Energy =  -286.8591340000 ; +0.1462 kcal/mol
C        1.2460219053    0.2527387864    0.2620300660
C        0.5759052337   -1.1223083610   -0.2007073081
C       -0.7387140212   -0.8852255289   -0.7846600075
C       -1.0557419393    0.2149535810    0.2244221170
C       -0.4480531470    1.4602297063   -0.4082554163
N        0.8371421229    1.4541479300   -0.4199039306
H        2.2840761370    0.1730908075    0.5653314323
H        1.2224897847   -1.9849989520   -0.3162949606
H       -1.1424723060   -1.0586185102   -1.7791828809
H       -2.0610154321    0.2947295359    0.6427621629
H       -1.0240731673    2.2069909128   -0.9512096463
C        0.1475463800   -0.3448291492    1.0636687326
H        0.1568884491   -0.6609007586    2.1019996395
13   
Frame   4 IRC: Energy =  -286.8591140000 ; +0.1588 kcal/mol
C        1.2456605365    0.2527589453    0.2621441573
C        0.5759431282   -1.1221979472   -0.2007148827
C       -0.7386315299   -0.8849693695   -0.7844594582
C       -1.0552760279    0.2145913476    0.2253887896
C       -0.4483260458    1.4609654930   -0.4095210698
N        0.8369541534    1.4536560571   -0.4195534789
H        2.2843197379    0.1731168513    0.5657991891
H        1.2223771378   -1.9845744047   -0.3167232282
H       -1.1424782091   -1.0572355857   -1.7794918448
H       -2.0612424151    0.2949956525    0.6435327770
H       -1.0239461374    2.2052990966   -0.9523590784
C        0.1476751507   -0.3450420948    1.0640146099
H        0.1569705207   -0.6613640416    2.1019435180
13   
Frame   5 IRC: Energy =  -286.8586180000 ; +0.4700 kcal/mol
C        1.2464566485    0.2542138402    0.2701938430
C        0.5760311017   -1.1162824586   -0.2019401570
C       -0.7422435841   -0.8759889773   -0.7808310425
C       -1.0560343675    0.2150284282    0.2362435258
C       -0.4484699458    1.4512829707   -0.4128134820
N        0.8369901845    1.4500704064   -0.4206456195
H        2.2831953596    0.1771141457    0.5788061010
H        1.2225121142   -1.9771077095   -0.3297354012
H       -1.1444669886   -1.0231018634   -1.7803888909
H       -2.0580993627    0.3007634767    0.6607097762
H       -1.0249784535    2.1692859182   -0.9926571485
C        0.1483523827   -0.3480693093    1.0693174123
H        0.1607549111   -0.6772088680    2.1037410833
13   
Frame   6 IRC: Energy =  -286.8585480000 ; +0.5139 kcal/mol
C        1.2458536864    0.2548847774    0.2704214931
C        0.5761766163   -1.1157095334   -0.2019797850
C       -0.7427713904   -0.8748423675   -0.7801493220
C       -1.0557417055    0.2144464442    0.2369825560
C       -0.4483495627    1.4521898491   -0.4142304623
N        0.8361408579    1.4490212868   -0.4203413865
H        2.2836350326    0.1773631237    0.5802228564
H        1.2225934870   -1.9765668483   -0.3309348805
H       -1.1446948014   -1.0200646215   -1.7806208847
H       -2.0579427961    0.3013298357    0.6623408093
H       -1.0244436562    2.1650254392   -0.9955849027
C        0.1484543027   -0.3483894131    1.0699542407
H        0.1610899295   -0.6786879722    2.1039196681
13   
Frame   7 IRC: Energy =  -286.8577960000 ; +0.9858 kcal/mol
C        1.2478277347    0.2562340657    0.2788962977
C        0.5769893750   -1.1094058383   -0.2041743925
C       -0.7448136266   -0.8650112732   -0.7780570892
C       -1.0557832339    0.2152446963    0.2481457883
C       -0.4484866422    1.4423354154   -0.4180160829
N        0.8375394100    1.4473597160   -0.4197156187
H        2.2828601261    0.1831164075    0.5946467658
H        1.2198579145   -1.9706578454   -0.3436311102
H       -1.1499171522   -0.9892712564   -1.7797619066
H       -2.0555497827    0.3063064526    0.6770907768
H       -1.0257131764    2.1292044624   -1.0341276273
C        0.1497194772   -0.3516139320    1.0743063797
H        0.1654695765   -0.6938410705    2.1043978191
13   
Frame   8 IRC: Energy =  -286.8576750000 ; +1.0617 kcal/mol
C        1.2469274457    0.2556483266    0.2801421748
C        0.5771016117   -1.1089785723   -0.2046027179
C       -0.7445363597   -0.8640093237   -0.7776827967
C       -1.0550807559    0.2150019903    0.2496063344
C       -0.4470867042    1.4428995352   -0.4197326149
N        0.8353253692    1.4474477520   -0.4197316569
H        2.2834908056    0.1837292205    0.5965097103
H        1.2192715584   -1.9696924467   -0.3449834282
H       -1.1506552232   -0.9858638472   -1.7798490809
H       -2.0558294923    0.3069330623    0.6789064264
H       -1.0252440102    2.1243335177   -1.0377297696
C        0.1503981709   -0.3520606087    1.0751596424
H        0.1659175840   -0.6953886060    2.1039877768
13   
Frame   9 IRC: Energy =  -286.8568010000 ; +1.6102 kcal/mol
C        1.2504150667    0.2591574185    0.2862928159
C        0.5785147120   -1.1019855581   -0.2069566879
C       -0.7463653974   -0.8529498845   -0.7765889180
C       -1.0554161814    0.2160582252    0.2580792211
C       -0.4474796091    1.4342740351   -0.4206563854
N        0.8388364132    1.4461408709   -0.4181303839
H        2.2828966806    0.1890046676    0.6098085985
H        1.2145241196   -1.9669540340   -0.3556795594
H       -1.1567121414   -0.9613107094   -1.7778590819
H       -2.0532318095    0.3097140675    0.6894154304
H       -1.0270255989    2.0909583075   -1.0699400015
C        0.1510738414   -0.3542100425    1.0778728134
H        0.1699699043   -0.7078973636    2.1043421388
13   
Frame  10 IRC: Energy =  -286.8564470000 ; +1.8323 kcal/mol
C        1.2496457688    0.2589531488    0.2887743890
C        0.5793377163   -1.1001692693   -0.2081415060
C       -0.7459505248   -0.8493737633   -0.7761043358
C       -1.0540651647    0.2159385932    0.2615463455
C       -0.4468069221    1.4347314402   -0.4239207951
N        0.8372389569    1.4461352982   -0.4175402395
H        2.2840320790    0.1907492823    0.6148105366
H        1.2120259677   -1.9654272113   -0.3590436532
H       -1.1591634706   -0.9532843065   -1.7775111496
H       -2.0534480447    0.3106633383    0.6930750053
H       -1.0263904186    2.0778643046   -1.0789199540
C        0.1523100268   -0.3550495302    1.0793240828
H        0.1712340299   -0.7117313249    2.1036512740
13   
Frame  11 IRC: Energy =  -286.8552580000 ; +2.5784 kcal/mol
C        1.2545912626    0.2617201835    0.2949857730
C        0.5825697933   -1.0902639890   -0.2113597121
C       -0.7446335430   -0.8317558900   -0.7788930713
C       -1.0543106426    0.2180307264    0.2705294485
C       -0.4457462660    1.4255602722   -0.4231934527
N        0.8416245972    1.4447865341   -0.4171395314
H        2.2848465983    0.1955922144    0.6284256167
H        1.2029254709   -1.9640640784   -0.3681944707
H       -1.1675278806   -0.9328438923   -1.7752713043
H       -2.0522104444    0.3112368137    0.7015204565
H       -1.0302968995    2.0412575223   -1.1081047774
C        0.1529118407   -0.3567844900    1.0820431098
H        0.1752561130   -0.7224719269    2.1046519153
13   
Frame  12 IRC: Energy =  -286.8544970000 ; +3.0560 kcal/mol
C        1.2555908275    0.2615227363    0.2982899528
C        0.5843381200   -1.0844428317   -0.2135670210
C       -0.7409118131   -0.8206064634   -0.7804359471
C       -1.0526154127    0.2182434848    0.2758591380
C       -0.4447484557    1.4249924086   -0.4275127925
N        0.8406073271    1.4435722110   -0.4170783323
H        2.2869990672    0.1978591871    0.6359739958
H        1.1968440634   -1.9629610202   -0.3722821299
H       -1.1730360113   -0.9234160828   -1.7751882302
H       -2.0534896374    0.3113943038    0.7061896768
H       -1.0307797420    2.0193682008   -1.1196669298
C        0.1539934619   -0.3583190969    1.0847596893
H        0.1772082051   -0.7272070375    2.1046589300
13   
Frame  13 IRC: Energy =  -286.8534420000 ; +3.7180 kcal/mol
C        1.2596779400    0.2628502352    0.3026241875
C        0.5894721630   -1.0765075436   -0.2154120020
C       -0.7379724145   -0.8032864544   -0.7872579204
C       -1.0544314285    0.2199820688    0.2818000436
C       -0.4447606089    1.4167935994   -0.4262997887
N        0.8453547065    1.4409052516   -0.4186564944
H        2.2888518482    0.2000444358    0.6435408284
H        1.1890605279   -1.9624852348   -0.3765857808
H       -1.1794467312   -0.9140561200   -1.7736216736
H       -2.0535351873    0.3109165245    0.7108826966
H       -1.0352641962    1.9972144450   -1.1356157656
C        0.1531214495   -0.3595165813    1.0868827839
H        0.1798719315   -0.7328546262    2.1077188856
13   
Frame  14 IRC: Energy =  -286.8509430000 ; +5.2861 kcal/mol
C        1.2646361843    0.2596040351    0.3080051874
C        0.5967540503   -1.0620501338   -0.2163604169
C       -0.7194228962   -0.7602522301   -0.8030744960
C       -1.0573532558    0.2180356935    0.2937275244
C       -0.4423953613    1.3983131162   -0.4424753222
N        0.8444642301    1.4344566113   -0.4188607334
H        2.2944580315    0.2019522246    0.6528800617
H        1.1754525069   -1.9600811126   -0.3804142954
H       -1.1910069415   -0.9043894639   -1.7706498147
H       -2.0614799533    0.3117129780    0.7217260617
H       -1.0405989255    1.9662146001   -1.1500184791
C        0.1526656452   -0.3652823913    1.0926274963
H        0.1838266853   -0.7382339272    2.1128872262
13   
Frame  15 IRC: Energy =  -286.8472310000 ; +7.6155 kcal/mol
C        1.2706541933    0.2573345584    0.3093872169
C        0.6022408450   -1.0515368655   -0.2143199022
C       -0.7053605077   -0.7101623077   -0.8200604231
C       -1.0635026074    0.2130258055    0.3072515036
C       -0.4440899803    1.3655897465   -0.4652458566
N        0.8480147737    1.4305547137   -0.4147277296
H        2.2984521879    0.2029709134    0.6583917988
H        1.1659874571   -1.9582392725   -0.3823272858
H       -1.1972928248   -0.8980800818   -1.7641114472
H       -2.0677780502    0.3126211558    0.7304718994
H       -1.0455240980    1.9477575161   -1.1584063519
C        0.1510896040   -0.3706240053    1.0962361665
H        0.1871090073   -0.7412118768    2.1174604111
13   
Frame  16 IRC: Energy =  -286.8425910000 ; +10.5271 kcal/mol
C        1.2761654107    0.2539653520    0.3099345480
C        0.6071303543   -1.0416195557   -0.2115454576
C       -0.6905635959   -0.6588516056   -0.8364589314
C       -1.0698384414    0.2067194868    0.3210795975
C       -0.4453661018    1.3309402047   -0.4921029372
N        0.8496622070    1.4268432873   -0.4096205463
H        2.3025150550    0.2036441250    0.6628490593
H        1.1574543535   -1.9560788202   -0.3834313062
H       -1.2026328261   -0.8925260522   -1.7577814352
H       -2.0750072814    0.3139024614    0.7393118948
H       -1.0496087926    1.9323933607   -1.1636609762
C        0.1499825083   -0.3761873763    1.0999292954
H        0.1901071502   -0.7431448681    2.1214971952
13   
Frame  17 IRC: Energy =  -286.8384580000 ; +13.1206 kcal/mol
C        1.2816415874    0.2509692878    0.3086503567
C        0.6105634895   -1.0342179854   -0.2071496698
C       -0.6808927095   -0.6078056717   -0.8497516616
C       -1.0767040034    0.1994208199    0.3349961120
C       -0.4503122070    1.2909321489   -0.5226482191
N        0.8540218030    1.4251497099   -0.4015864619
H        2.3055092123    0.2040981077    0.6655886068
H        1.1519711874   -1.9543410246   -0.3838476449
H       -1.2050086319   -0.8878956701   -1.7516324989
H       -2.0802709097    0.3149535077    0.7462820655
H       -1.0523620023    1.9232211985   -1.1652149603
C        0.1492015633   -0.3806670550    1.1024062507
H        0.1926416209   -0.7438173735    2.1239077248
13   
Frame  18 IRC: Energy =  -286.8367500000 ; +14.1924 kcal/mol (Transition State)
C        1.2868579825    0.2499271001    0.3082659046
C        0.6115409408   -1.0283231720   -0.2031391403
C       -0.6730083194   -0.5583656615   -0.8619651891
C       -1.0829577655    0.1940951237    0.3487310700
C       -0.4570347446    1.2478592346   -0.5545034337
N        0.8599787661    1.4240789108   -0.3923887883
H        2.3083746422    0.2045294051    0.6678833557
H        1.1475002823   -1.9524327555   -0.3841442609
H       -1.2063282446   -0.8832905298   -1.7455485820
H       -2.0847244447    0.3155108657    0.7526932237
H       -1.0543125195    1.9151810382   -1.1651968625
C        0.1486953117   -0.3846820543    1.1037800349
H        0.1954181127   -0.7440875052    2.1255326680
13   
Frame  19 IRC: Energy =  -286.8383790000 ; +13.1702 kcal/mol
C        1.2920666378    0.2498655895    0.3084010310
C        0.6114671390   -1.0227682585   -0.1996167456
C       -0.6653554222   -0.5098894005   -0.8747316045
C       -1.0887110426    0.1896420368    0.3626237382
C       -0.4643000396    1.2041556365   -0.5866762967
N        0.8664834801    1.4229577393   -0.3829706837
H        2.3112984500    0.2049553540    0.6701442920
H        1.1431196370   -1.9504331755   -0.3844374087
H       -1.2072703162   -0.8784569103   -1.7389934327
H       -2.0892444932    0.3159635442    0.7591499001
H       -1.0560193862    1.9069150303   -1.1648426924
C        0.1480925745   -0.3885828656    1.1048215011
H        0.1983727815   -0.7443243202    2.1271284018
13   
Frame  20 IRC: Energy =  -286.8419130000 ; +10.9526 kcal/mol
C        1.2968172785    0.2519876399    0.3107590496
C        0.6088033690   -1.0175046368   -0.1971917878
C       -0.6575993971   -0.4638434083   -0.8882744269
C       -1.0937144170    0.1874582940    0.3764218740
C       -0.4700891571    1.1598068430   -0.6200199869
N        0.8721758857    1.4215799741   -0.3733766041
H        2.3148359622    0.2054041316    0.6727506534
H        1.1382828742   -1.9474737906   -0.3850218368
H       -1.2078483561   -0.8727665803   -1.7317645395
H       -2.0940231184    0.3161227219    0.7661817270
H       -1.0571684107    1.8964018603   -1.1637793543
C        0.1473397358   -0.3925509368    1.1050763489
H        0.2021877511   -0.7446221119    2.1282388833
13   
Frame  21 IRC: Energy =  -286.8445820000 ; +9.2777 kcal/mol
C        1.3012330716    0.2559396126    0.3167824461
C        0.6041916909   -1.0104643761   -0.1961120719
C       -0.6491700999   -0.4241117390   -0.9046757063
C       -1.0979312811    0.1867230471    0.3896509525
C       -0.4703798515    1.1204239594   -0.6547718886
N        0.8750717811    1.4194288160   -0.3638252596
H        2.3199187241    0.2060864248    0.6771807182
H        1.1305214875   -1.9420348644   -0.3869304980
H       -1.2086544371   -0.8640833410   -1.7229012835
H       -2.1001672353    0.3166493420    0.7756316808
H       -1.0583459022    1.8782877328   -1.1638680260
C        0.1454007268   -0.3969599893    1.1049787958
H        0.2083113251   -0.7458846250    2.1288601406
13   
Frame  22 IRC: Energy =  -286.8450250000 ; +8.9997 kcal/mol
C        1.3023808995    0.2587149083    0.3225775071
C        0.6018631921   -1.0065956338   -0.1963784144
C       -0.6454868652   -0.4142413797   -0.9085467908
C       -1.0995347208    0.1876740470    0.3912637355
C       -0.4665304326    1.1084730285   -0.6654561221
N        0.8767221207    1.4198149432   -0.3596870544
H        2.3226183066    0.2069178768    0.6814184476
H        1.1239147022   -1.9377190387   -0.3899217476
H       -1.2108709330   -0.8580319794   -1.7207385196
H       -2.1019390067    0.3175471295    0.7813350246
H       -1.0606490482    1.8645432080   -1.1687125845
C        0.1441162142   -0.3988772174    1.1046565657
H        0.2133955710   -0.7482198921    2.1281899530
13   
Frame  23 IRC: Energy =  -286.8452160000 ; +8.8799 kcal/mol
C        1.3029041974    0.2606805123    0.3267808231
C        0.6010481000   -1.0040722966   -0.1960753357
C       -0.6448747711   -0.4134774964   -0.9094816841
C       -1.0995496226    0.1882434289    0.3924939936
C       -0.4640282984    1.1069953251   -0.6681936047
N        0.8778857169    1.4210931433   -0.3567318273
H        2.3233851865    0.2079451571    0.6865687249
H        1.1186556932   -1.9359448212   -0.3941480551
H       -1.2129508455   -0.8521885884   -1.7208633311
H       -2.1011982662    0.3193198070    0.7851670765
H       -1.0629891060    1.8520059128   -1.1772288793
C        0.1437266466   -0.3988778727    1.1049949237
H        0.2179853692   -0.7517222112    2.1267171754
13   
Frame  24 IRC: Energy =  -286.8452730000 ; +8.8441 kcal/mol
C        1.3030556147    0.2611044452    0.3276952510
C        0.6010979828   -1.0039925628   -0.1962632480
C       -0.6446578297   -0.4121955725   -0.9083852759
C       -1.0997549747    0.1887275462    0.3926944419
C       -0.4639021175    1.1054448874   -0.6679662083
N        0.8779001659    1.4219862410   -0.3559631645
H        2.3229801232    0.2085232076    0.6889571957
H        1.1171073133   -1.9358479442   -0.3958062546
H       -1.2135395412   -0.8499003769   -1.7213248569
H       -2.1003926959    0.3203855774    0.7864811733
H       -1.0638251106    1.8482275079   -1.1815980769
C        0.1444417229   -0.3989841193    1.1051580748
H        0.2194893468   -0.7534788369    2.1263209485
13   
Frame  25 IRC: Energy =  -286.8453460000 ; +8.7983 kcal/mol
C        1.3031139487    0.2619044337    0.3288535553
C        0.6009637054   -1.0032358121   -0.1965287172
C       -0.6446148726   -0.4120799446   -0.9080985361
C       -1.0991846876    0.1890955939    0.3942573021
C       -0.4636477748    1.1053787425   -0.6685414731
N        0.8774398580    1.4226934592   -0.3546906395
H        2.3224053538    0.2096332351    0.6928446487
H        1.1149499488   -1.9360525149   -0.3984640046
H       -1.2139547942   -0.8458244813   -1.7214197190
H       -2.0998000031    0.3223066747    0.7889839647
H       -1.0645194299    1.8416519691   -1.1881177267
C        0.1449432035   -0.3991828012    1.1053961624
H        0.2219055441   -0.7562885540    2.1255251830
13   
Frame  26 IRC: Energy =  -286.8453720000 ; +8.7820 kcal/mol
C        1.3031671221    0.2620371927    0.3294059054
C        0.6011747681   -1.0032930041   -0.1966351143
C       -0.6445594723   -0.4114110887   -0.9072159345
C       -1.0996630253    0.1893649037    0.3944312913
C       -0.4635596926    1.1044858409   -0.6684168678
N        0.8774354506    1.4232598771   -0.3543070125
H        2.3218996378    0.2103186837    0.6944911242
H        1.1140673132   -1.9359984543   -0.3995287736
H       -1.2142546562   -0.8442312095   -1.7217895247
H       -2.0991518691    0.3231824474    0.7901204499
H       -1.0648519911    1.8393083836   -1.1911126575
C        0.1453834528   -0.3994296125    1.1053965847
H        0.2229129620   -0.7575939600    2.1251605293
13   
Frame  27 IRC: Energy =  -286.8454080000 ; +8.7594 kcal/mol
C        1.3030561239    0.2626208740    0.3301079165
C        0.6010723930   -1.0028931020   -0.1969433765
C       -0.6446274934   -0.4114329020   -0.9068646187
C       -1.0992273095    0.1895303062    0.3955405501
C       -0.4634051246    1.1043476604   -0.6687583141
N        0.8769932940    1.4235881221   -0.3535629610
H        2.3212601405    0.2115781902    0.6974694298
H        1.1128032610   -1.9362474810   -0.4013808867
H       -1.2144453573   -0.8412569733   -1.7220124819
H       -2.0987393890    0.3248776892    0.7924334651
H       -1.0650168735    1.8348431808   -1.1960018938
C        0.1455999822   -0.3996851741    1.1055402145
H        0.2246763527   -0.7598703902    2.1244329567
13   
Frame  28 IRC: Energy =  -286.8454190000 ; +8.7525 kcal/mol
C        1.3030757872    0.2626408903    0.3304969713
C        0.6012399253   -1.0029670421   -0.1969533312
C       -0.6446805445   -0.4110362395   -0.9063229326
C       -1.0997035506    0.1897101065    0.3956927279
C       -0.4634501950    1.1037889524   -0.6687373407
N        0.8769917058    1.4239405743   -0.3533865842
H        2.3208459008    0.2121894708    0.6985978685
H        1.1123031465   -1.9361985388   -0.4020411750
H       -1.2146184870   -0.8402287827   -1.7223186770
H       -2.0981996081    0.3255520023    0.7933245794
H       -1.0650768336    1.8333390449   -1.1979584339
C        0.1459458984   -0.3999048689    1.1054548116
H        0.2253268549   -0.7608255696    2.1241515160
13   
Frame  29 IRC: Energy =  -286.8454370000 ; +8.7412 kcal/mol
C        1.3029410541    0.2631312593    0.3309891664
C        0.6011266783   -1.0027549729   -0.1972786439
C       -0.6447714859   -0.4111110630   -0.9060115800
C       -1.0994095416    0.1898018232    0.3965301016
C       -0.4632838906    1.1035570848   -0.6689595691
N        0.8765814198    1.4240611543   -0.3529502512
H        2.3202609606    0.2134180817    0.7009539256
H        1.1115046609   -1.9363697128   -0.4033465408
H       -1.2147616921   -0.8380720025   -1.7226585376
H       -2.0977968491    0.3270375205    0.7953927500
H       -1.0650369364    1.8301666513   -1.2017029134
C        0.1460174712   -0.4001328327    1.1055524326
H        0.2266281507   -0.7627329913    2.1234896596
13   
Frame  30 IRC: Energy =  -286.8454420000 ; +8.7381 kcal/mol
C        1.3029313873    0.2630868319    0.3312564017
C        0.6012637494   -1.0027948518   -0.1972134995
C       -0.6449047225   -0.4108752160   -0.9057058722
C       -1.0997528622    0.1899098233    0.3965876043
C       -0.4634224745    1.1032149007   -0.6690041526
N        0.8766210095    1.4242998094   -0.3528808537
H        2.3199620677    0.2138916240    0.7016884426
H        1.1112330884   -1.9363311516   -0.4037339323
H       -1.2148451818   -0.8374420408   -1.7228637233
H       -2.0974041454    0.3275362999    0.7960548094
H       -1.0649896381    1.8292235932   -1.2029024032
C        0.1462920227   -0.4003151561    1.1054444449
H        0.2270156996   -0.7634044661    2.1232727340
