13   
From optimize.out: Frame 2 / 3, Energy=    -286.9243457448
C        1.3472515847    0.8471269015   -0.5704831078
C        0.2493269033   -1.4171693927   -0.2298456718
C       -0.9303587591   -1.0642376942    0.3544671919
C       -1.3751082017    0.2694510511    0.6690993065
C       -0.7124542785    1.4634158877    0.4565457979
N        0.4890174313    1.7744295363   -0.0849378111
H        2.2578093568    1.3015884455   -0.9674658055
H        0.4258924868   -2.4781684505   -0.3950965960
H       -1.6167315406   -1.8670413326    0.6160883127
H       -2.3535799602    0.3520229829    1.1361447548
H       -1.2541165101    2.3528849344    0.7859345114
C        1.3014963144   -0.5317091505   -0.6595939709
H        2.1715551728   -1.0025937188   -1.1108569119
13   
From optimize.out: Frame 2 / 3, Energy=    -286.8723877668
C        1.5317255290    0.2376008110   -0.7058510518
C       -0.2661708968   -1.2894039169    0.0255619877
C       -1.4974192795   -1.1576099233    0.6166321554
C       -1.7179380266    0.2386753642    0.8308818696
C       -0.6150406583    0.9095371783    0.3636120392
N        0.2783286197   -0.0241192553   -0.1324488425
H        2.0513695093   -0.6709919295   -1.0219191142
H        0.2800769561   -2.1626205416   -0.3019132956
H       -2.1681105839   -1.9672948660    0.8706713154
H       -2.5907345715    0.6946207048    1.2788532861
H       -0.3732155450    1.9614147827    0.3314674983
C        2.0834008902    1.4231670794   -0.8718891831
H        3.0037280572    1.8070245123   -1.2836586644
