13   
From optimize.out: Frame 23 / 24, Energy=    -286.8516580738
C        1.1257872283    0.1915103642    0.4753344904
C        0.8530562582   -0.9771834436   -0.4844585579
C       -0.4708821211   -0.9917798802   -0.7112761441
C       -1.0733753324    0.1689504635    0.1058247809
C       -0.4268768735    1.4516272469   -0.4559746898
N        0.8343480124    1.4888641751   -0.2636226176
H        2.1013688013    0.2175611497    0.9584965789
H        1.6121067179   -1.6257873646   -0.9077038328
H       -1.0351172358   -1.6489404257   -1.3639214750
H       -2.1544426050    0.1672496931    0.2459404249
H       -0.9623959612    2.2384269214   -0.9846100443
C       -0.1373892975    0.0439136282    1.3126277610
H       -0.2661875919   -0.7244125280    2.0733433255
13   
From optimize.out: Frame 22 / 24, Energy=    -286.8516562724
C        1.1260211649    0.1927102161    0.4741596674
C        0.8530468329   -0.9768721859   -0.4841208679
C       -0.4696876257   -0.9916916389   -0.7130677489
C       -1.0738102443    0.1688577905    0.1056414099
C       -0.4273024204    1.4518147468   -0.4559074094
N        0.8333820966    1.4892814244   -0.2653374137
H        2.1025273083    0.2177743318    0.9556128762
H        1.6117483391   -1.6284803410   -0.9033629414
H       -1.0326366970   -1.6502953836   -1.3655653201
H       -2.1545558289    0.1698690530    0.2477631537
H       -0.9631196500    2.2400348635   -0.9820755151
C       -0.1381477044    0.0424447010    1.3127643626
H       -0.2674655712   -0.7254475776    2.0734957469
13   
From optimize.out: Frame 21 / 24, Energy=    -286.8516375257
C        1.1237441074    0.1908086284    0.4750165810
C        0.8536287710   -0.9784624081   -0.4848949453
C       -0.4686236963   -0.9909345301   -0.7142010188
C       -1.0722898125    0.1681800833    0.1044958688
C       -0.4293304846    1.4542653724   -0.4536916842
N        0.8312901887    1.4899041494   -0.2634674163
H        2.1010230439    0.2122261701    0.9549542234
H        1.6125454182   -1.6296123669   -0.9046920876
H       -1.0328087692   -1.6488511443   -1.3660716088
H       -2.1534832346    0.1668565739    0.2442905150
H       -0.9645027281    2.2405606153   -0.9835669514
C       -0.1368678048    0.0459919387    1.3150048028
H       -0.2643249991   -0.7209330820    2.0768237213
13   
From optimize.out: Frame 20 / 24, Energy=    -286.8516119950
C        1.1260740025    0.1897818408    0.4739577953
C        0.8539354411   -0.9786093337   -0.4849853691
C       -0.4709438463   -0.9901511095   -0.7110330811
C       -1.0741288275    0.1665927472    0.1054415003
C       -0.4250380938    1.4478321519   -0.4600842975
N        0.8340215751    1.4919148301   -0.2592731735
H        2.0992646339    0.2188150112    0.9615104446
H        1.6126703636   -1.6230770548   -0.9151888341
H       -1.0369379020   -1.6476262708   -1.3616268926
H       -2.1550592065    0.1674090703    0.2462218125
H       -0.9600532152    2.2367128240   -0.9862098001
C       -0.1362023726    0.0414508892    1.3122211470
H       -0.2676025524   -0.7210455960    2.0790487483
13   
From optimize.out: Frame 19 / 24, Energy=    -286.8515658299
C        1.1282275873    0.1890779179    0.4724710023
C        0.8551244380   -0.9770631725   -0.4841910472
C       -0.4690958122   -0.9956659442   -0.7132551737
C       -1.0771024084    0.1694890157    0.0985410571
C       -0.4279466329    1.4546138883   -0.4552513799
N        0.8335480930    1.4902823385   -0.2605502522
H        2.1081199136    0.2209924234    0.9461722081
H        1.6142295523   -1.6313704788   -0.8992332051
H       -1.0327729329   -1.6635148781   -1.3556879304
H       -2.1577468483    0.1698226251    0.2401546285
H       -0.9622991119    2.2536981581   -0.9665762868
C       -0.1402585116    0.0414129660    1.3058176452
H       -0.2720273260   -0.7217748593    2.0715887341
13   
From optimize.out: Frame 18 / 24, Energy=    -286.8514974168
C        1.1226322086    0.1883928071    0.4729011800
C        0.8494925609   -0.9867802247   -0.4729383554
C       -0.4676282518   -0.9959784063   -0.7144434131
C       -1.0739709786    0.1643791848    0.1018317855
C       -0.4306874175    1.4513329497   -0.4559801336
N        0.8272704735    1.4889730027   -0.2659749154
H        2.1043886497    0.2173108185    0.9434733976
H        1.6099362935   -1.6326223923   -0.8984267442
H       -1.0249506689   -1.6437145248   -1.3830930199
H       -2.1546870580    0.1653635602    0.2441180930
H       -0.9632460108    2.2494125279   -0.9702761269
C       -0.1337563516    0.0439857496    1.3129116568
H       -0.2647934490   -0.7100550527    2.0858965956
13   
From optimize.out: Frame 17 / 24, Energy=    -286.8511511751
C        1.1213705557    0.1848911273    0.4715703303
C        0.8533291237   -0.9719182937   -0.5016595184
C       -0.4685764574   -0.9911631531   -0.7358024506
C       -1.0752435077    0.1619418253    0.1021242620
C       -0.4299202044    1.4509613804   -0.4572491581
N        0.8235248587    1.5051105241   -0.2407665553
H        2.0991910416    0.2059464265    0.9505978408
H        1.6100556264   -1.6378969602   -0.9012715050
H       -1.0280545290   -1.6719417006   -1.3677411778
H       -2.1559158272    0.1684828541    0.2465458901
H       -0.9561745347    2.2490936984   -0.9780275149
C       -0.1311720633    0.0462642944    1.3152928033
H       -0.2624140823   -0.6997720228    2.0963867536
13   
From optimize.out: Frame 16 / 24, Energy=    -286.8509243224
C        1.1332766905    0.1740417520    0.4663605633
C        0.8615035839   -0.9882972437   -0.4854141936
C       -0.4642872715   -0.9958698328   -0.7013769789
C       -1.0815005412    0.1593891417    0.0890287020
C       -0.4285525036    1.4491977199   -0.4615009351
N        0.8293361227    1.4885131246   -0.2508389583
H        2.1110610845    0.2247702335    0.9417085754
H        1.6212773227   -1.6228311540   -0.9291989681
H       -1.0361562861   -1.6602024214   -1.3406809958
H       -2.1625124983    0.1588303668    0.2235140252
H       -0.9521198339    2.2675620473   -0.9542840365
C       -0.1466309845    0.0457782117    1.3096009266
H       -0.2846948853   -0.7008819455    2.0930822738
13   
From optimize.out: Frame 15 / 24, Energy=    -286.8495260980
C        1.1239826709    0.1918804850    0.4565684527
C        0.8488109248   -0.9975611459   -0.4683783998
C       -0.4706414627   -1.0039105756   -0.7121922471
C       -1.0793426474    0.1686040761    0.0771777537
C       -0.4420753932    1.4698662365   -0.4608351438
N        0.8198718555    1.5006236269   -0.2776786062
H        2.0993597173    0.2566612724    0.9341330125
H        1.6034555907   -1.6933300003   -0.8191760590
H       -1.0205290915   -1.6575474303   -1.3822491318
H       -2.1571610245    0.1641638484    0.2371176852
H       -0.9696715823    2.3089997157   -0.9105518027
C       -0.1125136116    0.0203378532    1.2736047613
H       -0.2435459460   -0.7287879621    2.0524597251
13   
From optimize.out: Frame 14 / 24, Energy=    -286.8484613114
C        1.1228601841    0.1794598582    0.4816381210
C        0.8486292337   -0.9943074609   -0.4768818820
C       -0.4699623706   -0.9902172745   -0.7292915102
C       -1.0747259281    0.1492797289    0.1069665838
C       -0.4474050250    1.4292374598   -0.4769518416
N        0.8065443833    1.4765238108   -0.2598007869
H        2.1352577628    0.2585816422    0.8729022716
H        1.5980057132   -1.7019283071   -0.8132067079
H       -1.0099024328   -1.5709810218   -1.4696686852
H       -2.1574750561    0.1299233918    0.2422052002
H       -0.9659252027    2.2706996538   -0.9307778973
C       -0.1214245877    0.0392481390    1.3238157350
H       -0.2644766739   -0.6755196203    2.1290513994
13   
From optimize.out: Frame 13 / 24, Energy=    -286.8455816218
C        1.1369358984    0.1818230706    0.4492517095
C        0.8692694450   -1.0065894875   -0.5075355962
C       -0.4607432336   -1.0213783326   -0.7163752381
C       -1.0797559466    0.1654649802    0.1087878063
C       -0.4617767832    1.4395342210   -0.4859585454
N        0.7966341710    1.4836158513   -0.2650276011
H        2.1271651554    0.2767159057    0.8921646388
H        1.6037703875   -1.7534141108   -0.7832934004
H       -1.0143372061   -1.5594155044   -1.4756568356
H       -2.1652171218    0.1230384299    0.2342875244
H       -0.9732298535    2.3067872488   -0.8952521555
C       -0.1164955117    0.0377915348    1.3196353580
H       -0.2622194008   -0.6739738071    2.1249723353
13   
From optimize.out: Frame 12 / 24, Energy=    -286.8405214169
C        1.1284876282    0.1834604786    0.4470440152
C        0.8748027211   -1.0057979091   -0.5001732960
C       -0.4567500910   -1.0293223371   -0.7157473844
C       -1.0883582379    0.1726092686    0.1272779703
C       -0.4715515541    1.4228349143   -0.4976069264
N        0.7925982637    1.4585054671   -0.2905900638
H        2.1293047610    0.2899538036    0.8635357853
H        1.6032399745   -1.7771746977   -0.7200589184
H       -1.0038327152   -1.4904644076   -1.5283786725
H       -2.1718123515    0.1023028564    0.2519322872
H       -0.9739508010    2.3090925958   -0.8774700883
C       -0.1060765536    0.0328420633    1.3121929468
H       -0.2561010442   -0.6688420960    2.1280423451
13   
From optimize.out: Frame 11 / 24, Energy=    -286.8332354354
C        1.1618875331    0.2104212531    0.4165379073
C        0.8549231342   -1.0294863146   -0.4369982189
C       -0.4874791373   -0.9942829685   -0.7178111163
C       -1.0614960538    0.1617773701    0.1012175286
C       -0.4937363424    1.4323325830   -0.4961555825
N        0.7748737225    1.4812851083   -0.2828734100
H        2.1616078947    0.3169478293    0.8346418149
H        1.5501760972   -1.8511503678   -0.5767043090
H       -1.0238021167   -1.3996487362   -1.5655896287
H       -2.1440445552    0.0330703192    0.2011524791
H       -1.0124724313    2.3203516098   -0.8506502695
C       -0.0741305157    0.0178361804    1.2861795593
H       -0.2063072294   -0.6994538658    2.0870532456
13   
From optimize.out: Frame 10 / 24, Energy=    -286.8230493891
C        1.1723933112    0.2222661550    0.3602586261
C        0.8460440656   -1.0251473550   -0.4242877954
C       -0.4952875531   -1.0424474200   -0.7555643894
C       -1.0649612212    0.1808420423    0.1258722050
C       -0.5020147714    1.4262306905   -0.4872495214
N        0.7679693049    1.4847775004   -0.2733013613
H        2.1679914565    0.2859204012    0.7940624103
H        1.5548726586   -1.8482341519   -0.4998500668
H       -1.0022982644   -1.4122162635   -1.6407875545
H       -2.1415915644    0.0283357849    0.2274374171
H       -1.0109277412    2.3308837927   -0.8178401130
C       -0.0736312838    0.0386595021    1.2900297277
H       -0.2185583972   -0.6698706786    2.1012204154
13   
From optimize.out: Frame 9 / 24, Energy=    -286.8090541289
C        1.1975583783    0.2532512381    0.3063529832
C        0.8129687295   -1.0212417711   -0.3589169436
C       -0.5080749112   -1.0282395706   -0.7691029360
C       -1.0615211618    0.1821337202    0.1155414264
C       -0.5099404545    1.4260678997   -0.4880231737
N        0.7660577529    1.4983326012   -0.2932728616
H        2.1834430576    0.3031688682    0.7624528598
H        1.4952205752   -1.8720301622   -0.3421770886
H       -0.9841049458   -1.3906640696   -1.6769232010
H       -2.1291637873    0.0018187017    0.2349079151
H       -1.0192419313    2.3488650797   -0.7679150196
C       -0.0503991922    0.0123382964    1.2373791426
H       -0.1928021095   -0.7138008317    2.0396968971
13   
From optimize.out: Frame 8 / 24, Energy=    -286.7923231042
C        1.2022016880    0.2642966317    0.2476369391
C        0.7769917204   -1.0197166883   -0.3184405605
C       -0.5149201753   -1.0276756504   -0.7765574898
C       -1.0414384213    0.1881138968    0.1003815759
C       -0.5099833978    1.4392279068   -0.4804272674
N        0.7556753500    1.5188481698   -0.2801599724
H        2.1727864343    0.2994859870    0.7358394728
H        1.4340134230   -1.8871392904   -0.2206442808
H       -0.9691633340   -1.3951302023   -1.6974346775
H       -2.0963605660   -0.0435487606    0.2122853495
H       -1.0266958826    2.3717098379   -0.7165702700
C       -0.0232759483    0.0175355113    1.1998691497
H       -0.1598308905   -0.7260073494    1.9942220312
13   
From optimize.out: Frame 7 / 24, Energy=    -286.7734394401
C        1.2608627263    0.2647013908    0.1778889325
C        0.7925041548   -1.0160720068   -0.3174116655
C       -0.4974525217   -1.0197309013   -0.7602902339
C       -1.0612471907    0.1805551464    0.0980639645
C       -0.5097605454    1.4286861896   -0.4605042527
N        0.7574862202    1.5160397874   -0.2561247275
H        2.2371161869    0.2976683706    0.6549256452
H        1.4414044235   -1.8892405578   -0.2028419360
H       -0.9669345532   -1.3742648888   -1.6799515385
H       -2.1118114641   -0.0754632093    0.1763600328
H       -1.0207713491    2.3688995042   -0.6811713170
C       -0.0758908049    0.0292852459    1.2260918879
H       -0.2455052826   -0.7110640708    2.0249652082
13   
From optimize.out: Frame 6 / 24, Energy=    -286.7440823765
C        1.3040478585    0.2750265250    0.0812885622
C        0.8276935255   -1.0141112727   -0.3197228949
C       -0.4703987865   -1.0850743499   -0.6652370071
C       -1.0938046439    0.2112873414    0.0695821616
C       -0.4890377548    1.4615458199   -0.4061531008
N        0.7532714946    1.5199600807   -0.2326153683
H        2.3058868257    0.3311914306    0.5003313559
H        1.5135874801   -1.8630117012   -0.2170319988
H       -0.9798398306   -1.4711777761   -1.5579901720
H       -2.1408534891   -0.0500970674    0.0923900089
H       -0.9648489652    2.4296827302   -0.5826852994
C       -0.1632611383    0.0084064252    1.2339339503
H       -0.4024425761   -0.7536281859    2.0039098025
13   
From optimize.out: Frame 5 / 24, Energy=    -286.7106062759
C        1.3533604359    0.2640204544    0.0089461815
C        0.8728213110   -1.0257607522   -0.3204955540
C       -0.4165263593   -1.0615602248   -0.6215787594
C       -1.1477878934    0.2064710987    0.0670874906
C       -0.4945609836    1.4434504501   -0.3806357570
N        0.7388583787    1.4910408877   -0.2192878363
H        2.3640347035    0.3475193252    0.4000739731
H        1.5523523481   -1.8799366887   -0.2070759971
H       -0.9715511707   -1.4110005259   -1.5030148071
H       -2.1941870828   -0.0586990102    0.0635191280
H       -0.9398700578    2.4274459153   -0.5407347983
C       -0.2230922979    0.0058485012    1.2408044115
H       -0.4938513317   -0.7488394307    2.0123923247
13   
From optimize.out: Frame 4 / 24, Energy=    -286.7013606847
C        1.3414867462    0.2785465051    0.0714587222
C        0.7403453613   -0.9864264301   -0.3105548007
C       -0.5322711206   -0.9623460925   -0.7858247407
C       -1.0428025240    0.1015258478    0.0822212946
C       -0.4720408856    1.3850295620   -0.4120533582
N        0.7857430805    1.5183843788   -0.1852890319
H        2.3094037518    0.3040698259    0.5589900376
H        1.3345064291   -1.8826680789   -0.1171789525
H       -0.9846140448   -1.2793948097   -1.7153770603
H       -2.0574954364   -0.2967645089    0.0795943448
H       -0.9960446563    2.3137648521   -0.6163526812
C       -0.1066301558    0.1177998986    1.2637488372
H       -0.3195865455   -0.6115209503    2.0866173891
13   
From optimize.out: Frame 3 / 24, Energy=    -286.6721216232
C        1.4038258962    0.2598799119    0.0566014155
C        0.7595649138   -1.0157751330   -0.3536249887
C       -0.5162315959   -1.0472468243   -0.8994279439
C       -1.1032698262    0.1307915714    0.1360084500
C       -0.4973008801    1.4012126901   -0.3749670403
N        0.8210170715    1.5044349282   -0.1527613097
H        2.3637806876    0.2782991675    0.5537495198
H        1.3517556965   -1.9025179983   -0.1379378851
H       -0.9407462081   -1.3590952148   -1.8229109463
H       -2.1115177173   -0.3066428268    0.1551044618
H       -1.0061823711    2.3317586947   -0.5825637951
C       -0.1526579022    0.2148432679    1.2864323322
H       -0.3720377646   -0.4899422342    2.1362977297
13   
From optimize.out: Frame 2 / 24, Energy=    -286.6491115880
C        1.4937348897    0.2896744202    0.0283648290
C        0.8179808934   -1.0225877703   -0.2961771473
C       -0.5295707242   -1.1361650074   -0.6782242043
C       -1.1607109141    0.1815314800   -0.0033208636
C       -0.5112918195    1.4906175799   -0.3342582846
N        0.8504349300    1.5295260545   -0.0913925595
H        2.4907534861    0.3320283399    0.4395502202
H        1.4599469432   -1.8805411201   -0.1265679583
H       -1.0779903211   -1.4663272177   -1.5101805964
H       -2.1647936849   -0.2801076732   -0.0559162326
H       -0.9961593614    2.4469069988   -0.4408121098
C       -0.2157238257    0.1542806405    1.1512773018
H       -0.4566104912   -0.6388367251    1.9176576053
13   
From optimize.out: Frame 1 / 24, Energy=    -286.5632287070
C        1.5421924578    0.2681791751   -0.0397115163
C        0.9517567787   -1.1327499948   -0.2989180471
C       -0.4112750108   -1.4306280272   -0.5598609355
C       -1.3687523778    0.3941244950   -0.0377334098
C       -0.5699750191    1.6459348970   -0.2451949967
N        0.8353641847    1.5028412664   -0.0672707817
H        2.5618694430    0.3765444746    0.2924463736
H        1.6988460664   -1.9053585296   -0.1707605501
H       -0.9980404998   -1.8317246668   -1.3146864067
H       -2.4279481140    0.0428093321   -0.0649276459
H       -0.9418975529    2.6525861157   -0.1925274746
C       -0.3066926895    0.1392933349    1.0064515925
H       -0.5654476669   -0.7218518723    1.6926937984
13   
C5H5N+CH->C6H6N atoms 1-13 frame 114 charge +0.000 sz -1.000 sz^2 0.555
C        1.5421924578    0.2681791751   -0.0397115163
C        0.9517567787   -1.1327499948   -0.2989180471
C       -0.4112750108   -1.4306280272   -0.5598609355
C       -1.3687523778    0.3941244950   -0.0377334098
C       -0.5699750191    1.6459348970   -0.2451949967
N        0.8353641847    1.5028412664   -0.0672707817
H        2.5618694430    0.3765444746    0.2924463736
H        1.6988460664   -1.9053585296   -0.1707605501
H       -0.9980404998   -1.8317246668   -1.3146864067
H       -2.4279481140    0.0428093321   -0.0649276459
H       -0.9418975529    2.6525861157   -0.1925274746
C       -0.3066926895    0.1392933349    1.0064515925
H       -0.5654476669   -0.7218518723    1.6926937984
13   
C5H5N+CH->C6H6N atoms 1-13 frame 115 charge -0.000 sz -1.000 sz^2 0.576
C        1.5354579723    0.2664156607   -0.0364164314
C        0.9457491319   -1.1380575987   -0.3103893779
C       -0.4055260664   -1.4343032477   -0.5768865496
C       -1.3646240077    0.4016032359   -0.0433313267
C       -0.5738267396    1.6570365768   -0.2575585751
N        0.8344206857    1.5058391096   -0.0687302563
H        2.5511369387    0.3724220281    0.3150975725
H        1.6983414630   -1.9076170893   -0.1917313118
H       -0.9882077670   -1.8418821221   -1.3023915141
H       -2.4161175842    0.0374187768   -0.0388761868
H       -0.9385344871    2.6669252627   -0.2087149737
C       -0.3151270095    0.1430164674    1.0152566039
H       -0.5631425301   -0.7288170602    1.7046723271
13   
C5H5N+CH->C6H6N atoms 1-13 frame 116 charge +0.000 sz -1.000 sz^2 0.609
C        1.5278493844    0.2647352060   -0.0324271353
C        0.9398933526   -1.1426746174   -0.3215793731
C       -0.3989843890   -1.4370388785   -0.5930590760
C       -1.3597064570    0.4088108884   -0.0481932029
C       -0.5772247995    1.6682428778   -0.2695253753
N        0.8328753554    1.5094867026   -0.0700596120
H        2.5403240802    0.3680986123    0.3384868124
H        1.6985802532   -1.9102778047   -0.2138553815
H       -0.9809800580   -1.8569150248   -1.2946182156
H       -2.4021242841    0.0337039511   -0.0121778260
H       -0.9357749156    2.6820077200   -0.2255036877
C       -0.3245448101    0.1460203155    1.0250658830
H       -0.5601827125   -0.7341999483    1.7174461899
13   
C5H5N+CH->C6H6N atoms 1-13 frame 117 charge -0.000 sz -1.000 sz^2 0.648
C        1.5194540364    0.2632152640   -0.0275991958
C        0.9343526987   -1.1465728645   -0.3323508360
C       -0.3914839081   -1.4387371664   -0.6081693321
C       -1.3538815064    0.4157520067   -0.0521341596
C       -0.5800520915    1.6795490824   -0.2809429411
N        0.8308124997    1.5138321349   -0.0711666779
H        2.5293172714    0.3636073264    0.3625264316
H        1.6996510465   -1.9131339464   -0.2369939521
H       -0.9771669537   -1.8775721206   -1.2921657846
H       -2.3862697743    0.0317276723    0.0150420203
H       -0.9335450062    2.6976722429   -0.2427563395
C       -0.3347343161    0.1483836781    1.0359999153
H       -0.5564539964   -0.7377233099    1.7307108515
13   
C5H5N+CH->C6H6N atoms 1-13 frame 118 charge +0.000 sz -1.000 sz^2 0.708
C        1.5103290953    0.2618761021   -0.0218521521
C        0.9292414585   -1.1497684748   -0.3426655843
C       -0.3830122079   -1.4393604334   -0.6221971039
C       -1.3470662767    0.4224356380   -0.0550362122
C       -0.5822059860    1.6909391374   -0.2916942130
N        0.8283094263    1.5188754206   -0.0719987890
H        2.5179169230    0.3589037219    0.3870312512
H        1.7015061602   -1.9159715257   -0.2611103621
H       -0.9768605202   -1.9040225772   -1.2949794160
H       -2.3689697854    0.0315366010    0.0425885319
H       -0.9317406698    2.7136856203   -0.2603427933
C       -0.3455176097    0.1501403572    1.0481016218
H       -0.5519300076   -0.7392695873    1.7441552211
13   
From optimize.out: Frame 1 / 31, Energy=    -286.5887998382
C        1.5004880686    0.2606687954   -0.0151783795
C        0.9246151303   -1.1523281155   -0.3525805693
C       -0.3737318339   -1.4389537052   -0.6353019496
C       -1.3392259455    0.4288635333   -0.0568476526
C       -0.5836119867    1.7023753657   -0.3017076993
N        0.8254265669    1.5245601176   -0.0725543767
H        2.5058601056    0.3538630273    0.4117228121
H        1.7039642495   -1.9185941148   -0.2862565783
H       -0.9793858827   -1.9357614545   -1.3021552633
H       -2.3507375650    0.0331523535    0.0702063306
H       -0.9302424201    2.7297497671   -0.2781509120
C       -0.3567607555    0.1512816658    1.0613341506
H       -0.5466577317   -0.7388772356    1.7574700872
13   
From optimize.out: Frame 2 / 31, Energy=    -286.6803572408
C        1.4238580153    0.2985378478    0.0770035307
C        0.7524087022   -1.0222177936   -0.3400255836
C       -0.5278337591   -1.1209044726   -0.7765470028
C       -1.0606157428    0.1903905201   -0.0273199406
C       -0.5083895937    1.5373436593   -0.4174014706
N        0.8420587503    1.5715417990   -0.0876392296
H        2.3817606389    0.3130944463    0.6035558529
H        1.4178157017   -1.8814120760   -0.2085359548
H       -1.1026970936   -1.5400227499   -1.5377322576
H       -2.0211347539   -0.3161347684    0.0743937438
H       -1.0065817184    2.4878183314   -0.5711715392
C       -0.2076378708    0.1537097256    1.2229945625
H       -0.3830112761   -0.6717444690    1.9884252887
13   
From optimize.out: Frame 3 / 31, Energy=    -286.7204458581
C        1.3892065938    0.3015198075    0.0701758699
C        0.7725842257   -1.0021030363   -0.3575955176
C       -0.4805186176   -1.0309239472   -0.8484149868
C       -1.0663754437    0.1681396285    0.0804771567
C       -0.4900191758    1.4598865743   -0.4734089887
N        0.8235025297    1.5500924348   -0.1914065894
H        2.3302179497    0.3346080557    0.6184995200
H        1.4172064871   -1.8738044172   -0.2040925374
H       -1.0250903938   -1.4390534405   -1.6575996441
H       -2.0803768494   -0.2001117660    0.2384719382
H       -0.9925806482    2.3946156383   -0.6930841641
C       -0.1784383000    0.0541127441    1.3140027764
H       -0.4193183574   -0.7169782759    2.1039751669
13   
From optimize.out: Frame 5 / 31, Energy=    -286.7277716502
C        1.3058893362    0.3542550551    0.0738660514
C        0.8045622648   -0.9832683393   -0.2138322913
C       -0.4885318509   -1.0931546596   -0.5639650110
C       -1.0662826191    0.2871441646    0.0056759109
C       -0.4777390165    1.5673742632   -0.4789193242
N        0.7563984316    1.5809231582   -0.2816841221
H        2.2850786255    0.4372945461    0.5275399550
H        1.5177997639   -1.8022912612   -0.0809773538
H       -1.0497450692   -1.6404785816   -1.3237611172
H       -2.1280489893    0.0968157775    0.1618678305
H       -0.9352306056    2.5411231539   -0.6284203219
C       -0.1178569873   -0.2399787285    1.0930238531
H       -0.4062932842   -1.1057585485    1.7095859406
13   
From optimize.out: Frame 6 / 31, Energy=    -286.7581535782
C        1.1834282411    0.2848636406    0.1911164835
C        0.7001510366   -1.0271809550   -0.2669811978
C       -0.5235732298   -1.0773705062   -0.8827290716
C       -1.0296200857    0.2541611170    0.0966690987
C       -0.5196614179    1.5004983291   -0.5128486349
N        0.7172866045    1.5347206646   -0.2319371296
H        2.0880642197    0.3139557539    0.7876384244
H        1.3631695081   -1.8737880144   -0.0689236010
H       -0.9112284611   -1.5720699803   -1.7719360623
H       -2.0755426447    0.0446417918    0.3274305303
H       -1.0179823483    2.4431708137   -0.7269961077
C        0.0735388819   -0.0254826226    1.1461410493
H       -0.0480303044   -0.8001200322    1.9133562186
13   
From optimize.out: Frame 7 / 31, Energy=    -286.7643168982
C        1.2919370418    0.2824677383    0.1821625160
C        0.7764310746   -1.0159847253   -0.3219048494
C       -0.4921740742   -1.0149096430   -0.8989818501
C       -1.0976425246    0.2093568895    0.1632212557
C       -0.5153316274    1.4284536571   -0.4806538628
N        0.7793137824    1.5052455518   -0.2826924887
H        2.2495485939    0.3183969929    0.6957356314
H        1.4479675364   -1.8718904888   -0.2234786286
H       -0.9015524209   -1.4596117424   -1.7998029858
H       -2.1629976971    0.0561736560    0.3380622071
H       -1.0290703168    2.3370260407   -0.7889218759
C       -0.0865097033   -0.0322196111    1.3026990920
H       -0.2599196646   -0.7425043159    2.1145558389
13   
From optimize.out: Frame 8 / 31, Energy=    -286.7932379459
C        1.2584509218    0.3093810503    0.2389057451
C        0.7698360782   -1.0039700097   -0.2459678367
C       -0.5081228937   -1.0015592174   -0.8021025445
C       -1.1153948024    0.2362491753    0.1319611998
C       -0.5118366980    1.4477567088   -0.4990781134
N        0.7797387120    1.5083046159   -0.3325846777
H        2.2318933374    0.3820554459    0.7172959188
H        1.4492043577   -1.8534352279   -0.1578869706
H       -0.9203752556   -1.4724438817   -1.6936205954
H       -2.1766001341    0.1411814062    0.3543252242
H       -1.0138487046    2.3641187062   -0.8049876962
C       -0.0518198450   -0.1515993499    1.1629092775
H       -0.1911250737   -0.9060394219    1.9308310691
13   
From optimize.out: Frame 9 / 31, Energy=    -286.8005527748
C        1.2053200236    0.3441106644    0.2878282526
C        0.7034832090   -0.9990370035   -0.1203137958
C       -0.5633818276   -0.9898724389   -0.7272488022
C       -1.0812074700    0.2356524576    0.0661872861
C       -0.5020573189    1.4999879063   -0.4934458429
N        0.7677462402    1.5541067280   -0.3393226920
H        2.2030037792    0.4367631260    0.7086516280
H        1.3768140928   -1.8495715829   -0.0127327785
H       -0.9314459533   -1.4995876733   -1.6198381152
H       -2.1429020672    0.1715497891    0.3005891963
H       -1.0166126068    2.4097493344   -0.7972116489
C        0.0382305063   -0.2682680888    1.0019527641
H       -0.0569906073   -1.0455832185    1.7449045485
13   
From optimize.out: Frame 10 / 31, Energy=    -286.8106464629
C        1.1710184118    0.3082479781    0.3485305457
C        0.7310516149   -1.0245841365   -0.2005966562
C       -0.5787704625   -1.0190978092   -0.7260784147
C       -1.0518238340    0.1975183469    0.0479797776
C       -0.4941120030    1.4842698321   -0.4756918145
N        0.7480238630    1.5515631061   -0.2563350433
H        2.1848813429    0.3913053946    0.7289056036
H        1.4466878287   -1.8457730935   -0.2142856315
H       -0.9858416776   -1.4596238531   -1.6364679608
H       -2.1261418646    0.1296189372    0.2229340598
H       -1.0175950218    2.3660728383   -0.8393231118
C        0.0368667290   -0.1867648213    1.0946223509
H       -0.0642449269   -0.8927527196    1.9058062953
13   
From optimize.out: Frame 12 / 31, Energy=    -286.8228726714
C        1.2137576586    0.3081943688    0.3543634443
C        0.7362518848   -1.0258296887   -0.2137136783
C       -0.5242114136   -0.9569386861   -0.8638096435
C       -1.1148723612    0.1775929379    0.0982485062
C       -0.5128870621    1.4331214724   -0.4639390810
N        0.7680184984    1.5029911856   -0.3200592821
H        2.2130603404    0.3634001192    0.7750499377
H        1.4137882213   -1.8756642296   -0.1851276094
H       -0.8863144145   -1.3921293514   -1.7942860720
H       -2.1633816738    0.2027129759    0.3978709289
H       -1.0757826140    2.2712958028   -0.8719888928
C        0.0063153774   -0.2262703576    1.0810506763
H       -0.0737424416   -0.7824765492    2.0063407656
13   
From optimize.out: Frame 14 / 31, Energy=    -286.8335511041
C        1.1896782823    0.3327860020    0.3894307581
C        0.7125389491   -1.0182218660   -0.2008406734
C       -0.5754734945   -0.9596327408   -0.8317506079
C       -1.0825482211    0.1616898126    0.0852996509
C       -0.4911343020    1.4419887639   -0.4661939966
N        0.7703305514    1.5552784327   -0.2662658549
H        2.1842404785    0.3704049776    0.8233749699
H        1.4214289049   -1.8405103702   -0.2417979799
H       -0.9502756607   -1.3703265477   -1.7671911072
H       -2.1341847786    0.1965167731    0.3756216295
H       -1.0600659812    2.2261521025   -0.9633343809
C        0.0476955431   -0.3253792961    1.0402875611
H       -0.0322302713   -0.7707460437    2.0233600312
13   
From optimize.out: Frame 15 / 31, Energy=    -286.8353241538
C        1.1950386284    0.3315341007    0.3824864098
C        0.6901035081   -1.0436776928   -0.1563528830
C       -0.5381679755   -0.8998633478   -0.8877084919
C       -1.0868557441    0.1478990195    0.0998021883
C       -0.5179613396    1.4441406429   -0.4311932079
N        0.7526112483    1.5214234887   -0.3102217693
H        2.2104829044    0.3502752573    0.7634175826
H        1.3748896316   -1.8872399760   -0.1670322580
H       -0.8808805462   -1.2771541483   -1.8480982493
H       -2.1386883495    0.1503317064    0.3944244467
H       -1.0868241430    2.2053334843   -0.9630475743
C        0.0602772461   -0.3070790411    1.0655075164
H       -0.0340250690   -0.7359234936    2.0580162901
13   
From optimize.out: Frame 16 / 31, Energy=    -286.8367270723
C        1.2128540940    0.3361519363    0.3458882559
C        0.6912804097   -1.0689486022   -0.1493946075
C       -0.5458030431   -0.9143755013   -0.8801885539
C       -1.0843163775    0.1429391141    0.0829001539
C       -0.5138377277    1.4583216252   -0.4208559311
N        0.7621597738    1.5320807214   -0.3272747887
H        2.1928012429    0.3599816494    0.8093850103
H        1.3903598678   -1.8994331094   -0.1848248213
H       -0.8966590021   -1.2661029209   -1.8449387230
H       -2.1337703448    0.1379351500    0.3869280639
H       -1.1012149883    2.2168678557   -0.9356462872
C        0.0612683879   -0.3427360532    1.0465351485
H       -0.0351222927   -0.6926818651    2.0714870800
13   
From optimize.out: Frame 19 / 31, Energy=    -286.8375837916
C        1.1917309427    0.3464211666    0.3658241850
C        0.6918275210   -1.0687370859   -0.1663936695
C       -0.5717110776   -0.9341047357   -0.8737458298
C       -1.0777358727    0.1405635228    0.0892080194
C       -0.5145991567    1.4606538716   -0.4206460144
N        0.7539715539    1.5434794782   -0.3120811482
H        2.1810998471    0.3409132719    0.8124974211
H        1.4005058494   -1.8907693166   -0.1847369941
H       -0.9040628601   -1.2399386035   -1.8614842220
H       -2.1261443786    0.1251326883    0.3945266449
H       -1.0866221294    2.2027251248   -0.9753284236
C        0.0725099799   -0.3333866032    1.0559648133
H       -0.0107702190   -0.6929527792    2.0763952179
13   
From optimize.out: Frame 21 / 31, Energy=    -286.8380536851
C        1.1889482645    0.3457044766    0.3826121729
C        0.6864934286   -1.0715670932   -0.1530128277
C       -0.5718514265   -0.9407961220   -0.8729312922
C       -1.0888196540    0.1358520781    0.0963464158
C       -0.5099667830    1.4455221572   -0.4320202981
N        0.7707960975    1.5312825822   -0.3209348127
H        2.1985482600    0.3404429348    0.7806572625
H        1.4056614797   -1.8838896652   -0.1887224031
H       -0.8832675941   -1.2061884195   -1.8783246691
H       -2.1387225878    0.1219726327    0.3977087225
H       -1.0939089250    2.1961241929   -0.9623914000
C        0.0574099957   -0.3491208835    1.0570791431
H       -0.0213205557   -0.6653388710    2.0939339860
13   
From optimize.out: Frame 23 / 31, Energy=    -286.8382336341
C        1.1892631455    0.3444411605    0.3784020046
C        0.6830824522   -1.0744709976   -0.1526626087
C       -0.5776098703   -0.9366385239   -0.8676538730
C       -1.0841225236    0.1297162778    0.0978720289
C       -0.5131258675    1.4388120188   -0.4339220018
N        0.7575089517    1.5334004433   -0.3124150121
H        2.1926602219    0.3399078443    0.7923087362
H        1.4044585670   -1.8842511165   -0.1984892179
H       -0.8786164191   -1.1818265492   -1.8828293902
H       -2.1313778136    0.1232949131    0.4073546436
H       -1.0880717152    2.1813718128   -0.9849028404
C        0.0630216113   -0.3460193294    1.0618476645
H       -0.0170707404   -0.6677379541    2.0950898664
13   
From optimize.out: Frame 27 / 31, Energy=    -286.8383012725
C        1.1900503394    0.3437720587    0.3785868565
C        0.6806197046   -1.0752494281   -0.1490478300
C       -0.5781469721   -0.9359292324   -0.8673274246
C       -1.0852437955    0.1307751639    0.1011604498
C       -0.5149889742    1.4398603652   -0.4314992794
N        0.7601873169    1.5297936841   -0.3185465976
H        2.1956996242    0.3387520512    0.7866083287
H        1.3978520671   -1.8891961650   -0.1863945188
H       -0.8687804752   -1.1645102974   -1.8897627922
H       -2.1347470483    0.1177661682    0.4034122972
H       -1.0947545388    2.1779990202   -0.9835735506
C        0.0642742178   -0.3480863890    1.0604277644
H       -0.0120214660   -0.6657469995    2.0959562966
13   
From optimize.out: Frame 28 / 31, Energy=    -286.8383040435
C        1.1890673913    0.3434913822    0.3784455052
C        0.6796914028   -1.0756616870   -0.1481352877
C       -0.5786881455   -0.9381335732   -0.8674636376
C       -1.0855915335    0.1295855460    0.1002920127
C       -0.5145292265    1.4389125266   -0.4317024773
N        0.7612639620    1.5288674452   -0.3203153444
H        2.1944176921    0.3388949059    0.7870615676
H        1.3985178112   -1.8880375503   -0.1879881051
H       -0.8658414827   -1.1630848977   -1.8917606634
H       -2.1336002232    0.1196362471    0.4077683255
H       -1.0948440852    2.1772315332   -0.9828510475
C        0.0635530280   -0.3471840201    1.0604219408
H       -0.0134165909   -0.6645178578    2.0962272111
13   
From optimize.out: Frame 29 / 31, Energy=    -286.8383063305
C        1.1892588441    0.3432059689    0.3780267202
C        0.6799849264   -1.0759733337   -0.1480643045
C       -0.5788373199   -0.9377581124   -0.8668914563
C       -1.0854854696    0.1296217136    0.1009520580
C       -0.5149616042    1.4386966114   -0.4318256695
N        0.7602937959    1.5284713169   -0.3207891361
H        2.1944850392    0.3386469245    0.7870196311
H        1.3983337221   -1.8888231008   -0.1875400086
H       -0.8653029660   -1.1605720379   -1.8919562477
H       -2.1340859700    0.1187118774    0.4064086756
H       -1.0949145579    2.1772736405   -0.9830345938
C        0.0638556129   -0.3471697740    1.0609935113
H       -0.0126240529   -0.6643316944    2.0967008203
13   
From optimize.out: Frame 30 / 31, Energy=    -286.8383070666
C        1.1893926159    0.3430764776    0.3777913106
C        0.6800432118   -1.0758653121   -0.1480580577
C       -0.5789747398   -0.9376362397   -0.8669185161
C       -1.0854324972    0.1294817327    0.1011401553
C       -0.5151694572    1.4384556318   -0.4320088713
N        0.7601117139    1.5284140858   -0.3209985905
H        2.1945874409    0.3386340181    0.7868700052
H        1.3975352713   -1.8895521398   -0.1863027082
H       -0.8645810205   -1.1589580651   -1.8926131035
H       -2.1340940856    0.1182411963    0.4063361366
H       -1.0953308714    2.1771220573   -0.9829099466
C        0.0639774128   -0.3473223776    1.0609130531
H       -0.0120649950   -0.6640910652    2.0967591331
