13   
From optimize.out: Frame 2 / 3, Energy=    -286.8383134969
C        1.5482631015    0.2439600781   -0.2499162964
C        0.5831613954   -0.9257548257   -0.0945058348
C       -0.7090733236   -0.3596409117   -0.7859874656
C       -1.1198146451    0.1988849191    0.5900884062
C       -0.4422720388    1.0837288812   -0.5510927869
N        0.9666768840    1.3699051016   -0.4517862960
H        2.6206041138    0.1766951608   -0.0731473905
H        0.9604500354   -1.9282857562   -0.3077102016
H       -1.3183502057   -0.8222857861   -1.5565333331
H       -2.0927552132    0.5054232907    0.9613640526
H       -1.0832845491    1.8562957945   -0.9634132650
C       -0.1337518241   -0.6625006690    1.2284612501
H        0.2201462699   -0.7364252773    2.2541791605
13   
From optimize.out: Frame 1 / 2, Energy=    -286.8754955387
C        1.6734165274    0.3585994487   -0.4786081570
C        1.0560964190   -0.9023133348   -0.4899042838
C       -0.4210820371   -0.6979284812   -0.4122503498
C       -1.0940610298    0.7178317038    1.0191400177
C       -0.4966459967    0.8809769575   -0.3786482585
N        0.8626220794    1.4102193109   -0.4174465208
H        2.7509730711    0.5169359842   -0.4918985162
H        1.5698937605   -1.8573436279   -0.5079707163
H       -1.0049221580   -1.2412848790   -1.1669316396
H       -1.4016860956    1.4518428844    1.7577843526
H       -1.1335018324    1.3801692155   -1.1194248033
C       -1.0443735287   -0.6184600040    0.9905342412
H       -1.3167291791   -1.3992451781    1.6956246336
