13   
Frame   0 IRC: Energy =  -286.8593510000 ; +0.0000 kcal/mol
C        1.5549393903    0.2368494728   -0.2652312029
C        0.5819959154   -0.9242843466   -0.0909642628
C       -0.7121587794   -0.3539373094   -0.7783766174
C       -1.1067708511    0.2234280744    0.6021820470
C       -0.4363743445    1.0885426123   -0.5616803363
N        0.9750236506    1.3636032091   -0.4788665534
H        2.6280514920    0.1684324271   -0.0992649870
H        0.9527640279   -1.9293160977   -0.2993686885
H       -1.3373280643   -0.8254781560   -1.5296687978
H       -2.0714229759    0.5442240930    0.9805638926
H       -1.0758456831    1.8613122653   -0.9736230084
C       -0.1296120135   -0.6503588609    1.2320088992
H        0.1767382350   -0.8030173832    2.2622896155
13   
Frame   1 IRC: Energy =  -286.8584991111 ; +0.5346 kcal/mol
C        1.5624430445    0.2534491133   -0.2841574437
C        0.5967580448   -0.9109936663   -0.0793707688
C       -0.7052224862   -0.3551429018   -0.7652188092
C       -1.0867538561    0.2540243129    0.6132099176
C       -0.4355206786    1.0917542254   -0.5725751871
N        0.9756324683    1.3736662930   -0.5129205492
H        2.6379399853    0.1945385306   -0.1299324985
H        0.9704765690   -1.9174280560   -0.2734742130
H       -1.3431175310   -0.8471748433   -1.4919276678
H       -2.0491479270    0.5741394756    0.9972921210
H       -1.0821267294    1.8508651279   -0.9992518073
C       -0.1094260199   -0.6200693902    1.2399427192
H        0.0680651165   -0.9416282210    2.2583841867
13   
Frame   2 IRC: Energy =  -286.8574158202 ; +1.2143 kcal/mol
C        1.5660486209    0.2659973987   -0.3000578872
C        0.6083467700   -0.9007306140   -0.0715422909
C       -0.7032540819   -0.3649371080   -0.7506372176
C       -1.0658653547    0.2833810766    0.6237125830
C       -0.4401143246    1.0875172401   -0.5785553757
N        0.9720108479    1.3791965978   -0.5412545154
H        2.6404688179    0.2158853120   -0.1375333585
H        0.9812928967   -1.9097056555   -0.2504738893
H       -1.3389861747   -0.8650388042   -1.4745517248
H       -2.0167166900    0.6118378528    1.0288457603
H       -1.0963625660    1.8303211075   -1.0188569478
C       -0.0674365086   -0.5699548867    1.2551156503
H       -0.0394322529   -1.0637695171    2.2157892137
13   
Frame   3 IRC: Energy =  -286.8545364451 ; +3.0212 kcal/mol
C        1.5560275319    0.2736240966   -0.2927661107
C        0.6062859283   -0.9067563170   -0.0788397235
C       -0.6932966395   -0.3807933977   -0.7826692738
C       -1.0539322982    0.3119580830    0.6370501661
C       -0.4537104949    1.0707934671   -0.5768963645
N        0.9556371235    1.3835959464   -0.5316291333
H        2.6308748626    0.2325514455   -0.1324403808
H        0.9967005541   -1.9117094503   -0.2409840282
H       -1.2979119803   -0.8983688425   -1.5257726381
H       -1.9446852231    0.7048636402    1.1243825801
H       -1.1263454447    1.7940696399   -1.0230225531
C       -0.0911892975   -0.5895695884    1.2321852345
H       -0.0844546223   -1.0842587229    2.1914022251
13   
Frame   4 IRC: Energy =  -286.8479534169 ; +7.1521 kcal/mol (Transition State)
C        1.5522618368    0.2772856038   -0.2890734849
C        0.6033380945   -0.9062806099   -0.0864022743
C       -0.6135315035   -0.4018239432   -0.9009266211
C       -1.0208139673    0.3825626410    0.7145786426
C       -0.4825464750    1.0382016861   -0.5584227122
N        0.9412079443    1.3839585494   -0.5186853483
H        2.6287479102    0.2357318902   -0.1379414692
H        1.0006662002   -1.9108414132   -0.2274569661
H       -1.3005584249   -0.9322348835   -1.5472356001
H       -1.9354357048    0.7391693769    1.1819705226
H       -1.1334036932    1.7767790642   -1.0162240528
C       -0.1386098532   -0.5978308625    1.2109880314
H       -0.1013223640   -1.0846770994    2.1748313324
13   
Frame   5 IRC: Energy =  -286.8562979930 ; +1.9158 kcal/mol
C        1.5503396234    0.2804706283   -0.2849179420
C        0.5985557480   -0.9037948490   -0.0955687389
C       -0.5229994944   -0.4183652694   -1.0324203104
C       -0.9965241848    0.4353573993    0.7998433213
C       -0.5157265902    0.9997862469   -0.5441878470
N        0.9305611484    1.3794187154   -0.5101450688
H        2.6282677302    0.2375596833   -0.1427798547
H        1.0030905213   -1.9084179018   -0.2170915822
H       -1.3061171700   -0.9555517330   -1.5455442004
H       -1.9301593680    0.7653450014    1.2298524305
H       -1.1365294884    1.7647291087   -1.0097043691
C       -0.1845536504   -0.5875688763    1.1955610796
H       -0.1182048250   -1.0889681537    2.1571030822
13   
Frame   6 IRC: Energy =  -286.8672368897 ; -4.9485 kcal/mol
C        1.5483279248    0.2881324164   -0.2701979903
C        0.5984242280   -0.9024136303   -0.1079933186
C       -0.4424648163   -0.4213614686   -1.1402684625
C       -0.9978430218    0.4678268211    0.8366611452
C       -0.5406814691    0.9662225618   -0.5461801172
N        0.9175074601    1.3777081183   -0.4973787502
H        2.6286888611    0.2435850949   -0.1497880846
H        1.0119291858   -1.9060982487   -0.1981617703
H       -1.2951050068   -0.9830114139   -1.5163668873
H       -1.9023536890    0.8221397291    1.3142103996
H       -1.1472660681    1.7423980675   -1.0074856128
C       -0.2262245677   -0.5882118637    1.1648068971
H       -0.1529390210   -1.1069161839    2.1181425520
13   
Frame   7 IRC: Energy =  -286.8719551048 ; -7.9092 kcal/mol
C        1.5414844621    0.3035298060   -0.2556314165
C        0.6005620486   -0.9024737907   -0.1141900401
C       -0.4171473324   -0.4292518844   -1.1654192240
C       -1.0051853753    0.4746930829    0.8330018309
C       -0.5538540203    0.9562618699   -0.5556176844
N        0.9038686733    1.3869385551   -0.4867089517
H        2.6239982810    0.2632553657   -0.1501100591
H        1.0317162975   -1.9005573287   -0.1850177577
H       -1.2682650219   -1.0222743236   -1.4933908128
H       -1.8135433479    0.9128577297    1.4060822015
H       -1.1667648612    1.7185323554   -1.0312173355
C       -0.2622120612   -0.6076883961    1.1312306271
H       -0.2146577423   -1.1538230411    2.0669886222
13   
Frame   8 IRC: Energy =  -286.8735110000 ; -8.8855 kcal/mol
C        1.5302432459    0.3168656677   -0.2498989377
C        0.5997421009   -0.9048222158   -0.1153124090
C       -0.4126286376   -0.4434815996   -1.1697675340
C       -0.9867633594    0.4908055767    0.8423491256
C       -0.5652962661    0.9461798030   -0.5633453307
N        0.8870956888    1.3924858918   -0.4985593091
H        2.6111962129    0.2954898233   -0.1280808732
H        1.0527729940   -1.8927768894   -0.1861997360
H       -1.2492063221   -1.0577059784   -1.4967553313
H       -1.7017750516    1.0036623626    1.4743967631
H       -1.1918517816    1.6898851304   -1.0515032301
C       -0.2842204656   -0.6230851325    1.1170845698
H       -0.2893083586   -1.2135024400    2.0255922326
