13   
From optimize.out: Frame 1 / 2, Energy=    -286.8754955387
C        1.6734165274    0.3585994487   -0.4786081570
C        1.0560964190   -0.9023133348   -0.4899042838
C       -0.4210820371   -0.6979284812   -0.4122503498
C       -1.0940610298    0.7178317038    1.0191400177
C       -0.4966459967    0.8809769575   -0.3786482585
N        0.8626220794    1.4102193109   -0.4174465208
H        2.7509730711    0.5169359842   -0.4918985162
H        1.5698937605   -1.8573436279   -0.5079707163
H       -1.0049221580   -1.2412848790   -1.1669316396
H       -1.4016860956    1.4518428844    1.7577843526
H       -1.1335018324    1.3801692155   -1.1194248033
C       -1.0443735287   -0.6184600040    0.9905342412
H       -1.3167291791   -1.3992451781    1.6956246336
