13   
From optimize.out: Frame 1 / 36, Energy=    -286.6700099000
C        1.7037313021    0.3376744476   -2.5963676420
C        1.4263833421   -1.0110134929   -2.4149843397
C       -0.3045213724   -1.3505771149   -2.4921106554
C       -1.1831085885    0.3064907240   -1.2452000924
C       -0.6109920039    1.2828150125   -2.4206482907
N        0.5909958012    1.2294959622   -2.7475245744
H        2.5217196623    0.9622102064   -2.9340276900
H        2.1472090592   -1.8520331218   -2.5297160884
H       -0.5603431495   -1.0140777678   -3.4858200696
H       -1.0035098446    0.8342209051   -0.2713542088
H       -1.2667044546    1.9023573537   -3.0904406688
C       -1.7256986142   -0.9716230994   -1.2792542663
H       -2.0819452935   -1.7853199347   -0.5085027170
13   
From optimize.out: Frame 2 / 36, Energy=    -286.7182026011
C        1.6519027225    0.3337085932   -2.5733040723
C        1.3482041169   -0.9952645790   -2.4056784476
C       -0.3027799535   -1.3554308010   -2.5101085548
C       -1.1460568400    0.3151743412   -1.2605891687
C       -0.6160820609    1.2769732295   -2.4207444083
N        0.5889931929    1.2587174784   -2.7616184460
H        2.5333295364    0.8901256360   -2.8713360166
H        2.0654251335   -1.8280786998   -2.4889600279
H       -0.5779461285   -1.0317733794   -3.5082737158
H       -1.0043009649    0.8422877099   -0.2878740589
H       -1.3058438581    1.8751295881   -3.0564148493
C       -1.6315880785   -0.9657745660   -1.3206251022
H       -1.9500409720   -1.7451744711   -0.5504244352
13   
From optimize.out: Frame 3 / 36, Energy=    -286.7595840624
C        1.6022761350    0.3305850983   -2.5503577178
C        1.2722156653   -0.9863287408   -2.3983741431
C       -0.3022584120   -1.3591407544   -2.5333347676
C       -1.1154386014    0.3334531804   -1.2683104889
C       -0.6197300652    1.2750301828   -2.4141550959
N        0.5889593111    1.2896981668   -2.7722915457
H        2.5345846672    0.8213647414   -2.8091815290
H        1.9917093877   -1.8116163066   -2.4561274392
H       -0.5972303850   -1.0593612152   -3.5371919126
H       -1.0199595211    0.8577447089   -0.2935540163
H       -1.3347961667    1.8472694346   -3.0328595530
C       -1.5286887038   -0.9566457429   -1.3614316862
H       -1.8184274653   -1.7114326733   -0.5887814082
13   
From optimize.out: Frame 4 / 36, Energy=    -286.7926733103
C        1.5611047753    0.3267708445   -2.5332725432
C        1.2076856290   -0.9811538390   -2.3991659774
C       -0.3042955085   -1.3627585047   -2.5546797323
C       -1.0949104367    0.3551150374   -1.2716245645
C       -0.6217017134    1.2752687212   -2.4061262527
N        0.5903452686    1.3155399833   -2.7806270658
H        2.5346342808    0.7563865104   -2.7489920795
H        1.9338608157   -1.7970660133   -2.4327606108
H       -0.6222564320   -1.0947857883   -3.5641233088
H       -1.0567610552    0.8734293299   -0.2949788017
H       -1.3544662586    1.8293175929   -3.0113935932
C       -1.4253825210   -0.9462523864   -1.3994025455
H       -1.6946409985   -1.6791914077   -0.6188042279
13   
From optimize.out: Frame 5 / 36, Energy=    -286.8166610585
C        1.5308064811    0.3217785224   -2.5256899328
C        1.1624602710   -0.9794257886   -2.4089670093
C       -0.3067364335   -1.3675810932   -2.5695414671
C       -1.0888588215    0.3759664254   -1.2738171448
C       -0.6213525007    1.2801833662   -2.3972961670
N        0.5932131856    1.3343952716   -2.7872174927
H        2.5354025821    0.6978615792   -2.6977913685
H        1.8983144789   -1.7841652264   -2.4203443980
H       -0.6514951166   -1.1425287988   -3.5837477159
H       -1.1174129806    0.8838172639   -0.2968964119
H       -1.3632145383    1.8335450594   -2.9853906003
C       -1.3299705260   -0.9368409531   -1.4309906742
H       -1.5879402358   -1.6463855482   -0.6382609209
13   
From optimize.out: Frame 6 / 36, Energy=    -286.8325735686
C        1.5119607437    0.3148176677   -2.5295830694
C        1.1413232411   -0.9832490035   -2.4290064499
C       -0.3026527182   -1.3771872375   -2.5789635690
C       -1.0980687538    0.3938861654   -1.2770837491
C       -0.6201391930    1.2899397347   -2.3870253353
N        0.5954895260    1.3439024183   -2.7917799589
H        2.5367242926    0.6523852507   -2.6609782966
H        1.8878869513   -1.7759982092   -2.4218909809
H       -0.6748151231   -1.2063275811   -3.5960660499
H       -1.1991617676    0.8907655904   -0.3041484773
H       -1.3609062737    1.8689450346   -2.9469206895
C       -1.2533862399   -0.9280262214   -1.4493425462
H       -1.5110388396   -1.6132335292   -0.6431621315
13   
From optimize.out: Frame 7 / 36, Energy=    -286.8436750383
C        1.4998247861    0.3081151303   -2.5401690381
C        1.1350496211   -0.9902573225   -2.4521024794
C       -0.2939608553   -1.3920241418   -2.5842813581
C       -1.1117936798    0.4084153559   -1.2834020171
C       -0.6178163857    1.3038030641   -2.3756594905
N        0.5964739822    1.3474219422   -2.7960563303
H        2.5361916691    0.6221431941   -2.6381613362
H        1.8926010470   -1.7710290722   -2.4302880214
H       -0.6914834575   -1.2835093573   -3.6010469531
H       -1.2854518406    0.8953681246   -0.3191257456
H       -1.3492555498    1.9269672465   -2.8968290623
C       -1.1960686915   -0.9191178429   -1.4572973857
H       -1.4610947997   -1.5856762410   -0.6415320857
13   
From optimize.out: Frame 8 / 36, Energy=    -286.8523484540
C        1.4909242395    0.3036640449   -2.5538642382
C        1.1343486384   -0.9967939152   -2.4726005430
C       -0.2854695394   -1.4085699428   -2.5846310555
C       -1.1238066876    0.4203020640   -1.2929358088
C       -0.6133957814    1.3219074244   -2.3625527619
N        0.5974077852    1.3502828861   -2.8001482740
H        2.5340554430    0.6030629906   -2.6275959852
H        1.9028782565   -1.7661258041   -2.4395658852
H       -0.7060270579   -1.3715323586   -3.5969269811
H       -1.3682807124    0.8963756767   -0.3407714149
H       -1.3295225170    1.9950322120   -2.8402085949
C       -1.1512434556   -0.9105303230   -1.4618581310
H       -1.4286527655   -1.5664548752   -0.6422916298
13   
From optimize.out: Frame 9 / 36, Energy=    -286.8594830539
C        1.4841069400    0.3008937964   -2.5688844206
C        1.1366187856   -1.0026510882   -2.4930747275
C       -0.2749970853   -1.4265941650   -2.5819553018
C       -1.1352399593    0.4311447943   -1.3033755768
C       -0.6076632444    1.3420950922   -2.3470212745
N        0.5988068997    1.3541668989   -2.8012290561
H        2.5310848656    0.5917650834   -2.6266041280
H        1.9160237339   -1.7610042075   -2.4543676754
H       -0.7148573987   -1.4688701183   -3.5849906479
H       -1.4485073445    0.8960961532   -0.3671593655
H       -1.3034946707    2.0652490622   -2.7791689514
C       -1.1161599572   -0.9016611025   -1.4637984791
H       -1.4125057189   -1.5500101190   -0.6443216989
13   
From optimize.out: Frame 10 / 36, Energy=    -286.8655335179
C        1.4795290258    0.3013873435   -2.5841995978
C        1.1394327629   -1.0052598832   -2.5110264775
C       -0.2661353715   -1.4436318754   -2.5739624840
C       -1.1447729747    0.4406778733   -1.3150923574
C       -0.5994399654    1.3639971878   -2.3297042878
N        0.6022010168    1.3612095435   -2.7997713461
H        2.5289316680    0.5863069385   -2.6346287189
H        1.9292904796   -1.7535951812   -2.4731735302
H       -0.7215867672   -1.5749249852   -3.5610175230
H       -1.5228982900    0.8929645755   -0.3974951019
H       -1.2723393082    2.1335073669   -2.7161369826
C       -1.0891725891   -0.8933648638   -1.4669541788
H       -1.4098238412   -1.5386539602   -0.6527887176
13   
From optimize.out: Frame 11 / 36, Energy=    -286.8707584324
C        1.4756644134    0.3034172898   -2.5988795063
C        1.1420519236   -1.0066390667   -2.5315007866
C       -0.2540410579   -1.4613189865   -2.5656414649
C       -1.1540821360    0.4507192499   -1.3253238678
C       -0.5904501250    1.3865343378   -2.3096648271
N        0.6066080286    1.3711094757   -2.7935748991
H        2.5267879260    0.5836181896   -2.6471505323
H        1.9419457411   -1.7454044733   -2.5008419109
H       -0.7180192283   -1.6897629534   -3.5295408091
H       -1.5913611532    0.8902215081   -0.4283851154
H       -1.2400788487    2.1959437482   -2.6522444428
C       -1.0700721358   -0.8839063820   -1.4700620972
H       -1.4217375021   -1.5239118571   -0.6631410440
13   
From optimize.out: Frame 12 / 36, Energy=    -286.8754525048
C        1.4738293228    0.3087881506   -2.6126408686
C        1.1429626041   -1.0037501013   -2.5481442688
C       -0.2460478464   -1.4747203186   -2.5518356532
C       -1.1616978442    0.4593408751   -1.3364558788
C       -0.5792637722    1.4088945893   -2.2900092065
N        0.6132867118    1.3837947081   -2.7863364377
H        2.5265370264    0.5834558172   -2.6648100804
H        1.9512792575   -1.7349252951   -2.5311924825
H       -0.7132619284   -1.8045698993   -3.4828644672
H       -1.6509046620    0.8851706297   -0.4602235219
H       -1.2061736738    2.2523071187   -2.5911594869
C       -1.0570225643   -0.8760200653   -1.4768382650
H       -1.4403067857   -1.5171461291   -0.6834406859
13   
From optimize.out: Frame 13 / 36, Energy=    -286.8798741742
C        1.4721362305    0.3134873189   -2.6257780079
C        1.1437575024   -1.0020984572   -2.5692690093
C       -0.2331698533   -1.4885681304   -2.5397936557
C       -1.1700966122    0.4681501054   -1.3459330132
C       -0.5690815734    1.4299985754   -2.2687863300
N        0.6197460175    1.3967174920   -2.7752161255
H        2.5260039992    0.5834748381   -2.6831588605
H        1.9596016707   -1.7260262922   -2.5702927607
H       -0.6964090035   -1.9173247289   -3.4302959062
H       -1.7070910708    0.8817337413   -0.4922487789
H       -1.1742796619    2.3020809429   -2.5305298626
C       -1.0485596760   -0.8676735553   -1.4824415111
H       -1.4693421235   -1.5033317702   -0.7022074819
13   
From optimize.out: Frame 14 / 36, Energy=    -286.8842117379
C        1.4718868224    0.3198628657   -2.6389135936
C        1.1428499236   -0.9980270727   -2.5882128758
C       -0.2231045296   -1.4983288794   -2.5245325352
C       -1.1785526304    0.4759073444   -1.3559067010
C       -0.5573882877    1.4498900850   -2.2481074407
N        0.6276206530    1.4103924005   -2.7641720928
H        2.5268223429    0.5844293939   -2.7043604316
H        1.9640968847   -1.7166298435   -2.6103587522
H       -0.6781930086   -2.0228714281   -3.3650999093
H       -1.7589663624    0.8774121094   -0.5253287868
H       -1.1413099129    2.3468104618   -2.4725409168
C       -1.0433896301   -0.8608899339   -1.4899610979
H       -1.4991564191   -1.4973374234   -0.7284561699
13   
From optimize.out: Frame 15 / 36, Energy=    -286.8885462275
C        1.4722841455    0.3259187476   -2.6526063274
C        1.1415285099   -0.9945252563   -2.6082954216
C       -0.2118867183   -1.5065767937   -2.5086464410
C       -1.1875700078    0.4827579086   -1.3659698741
C       -0.5458160611    1.4686022069   -2.2265974203
N        0.6354440078    1.4236886454   -2.7520583157
H        2.5278575850    0.5856557034   -2.7277132100
H        1.9666466081   -1.7087574433   -2.6533861639
H       -0.6533352541   -2.1207694940   -3.2922931106
H       -1.8090308451    0.8729840317   -0.5602364469
H       -1.1089084548    2.3873590789   -2.4143201694
C       -1.0406242186   -0.8553753167   -1.4975658271
H       -1.5333734508   -1.4903419385   -0.7562625757
13   
From optimize.out: Frame 16 / 36, Energy=    -286.8929061741
C        1.4740814199    0.3321249776   -2.6677278891
C        1.1396817108   -0.9907259772   -2.6282663730
C       -0.2006064885   -1.5121584909   -2.4906160906
C       -1.1980023012    0.4888161751   -1.3759271291
C       -0.5333132435    1.4856557052   -2.2044732625
N        0.6436692542    1.4363359064   -2.7401237438
H        2.5296989478    0.5878025460   -2.7548502317
H        1.9664529764   -1.7023796078   -2.6974378018
H       -0.6238618385   -2.2086682116   -3.2110961390
H       -1.8591638937    0.8691495109   -0.5976132216
H       -1.0751292154    2.4241860352   -2.3557357558
C       -1.0407265120   -0.8516239704   -1.5046013942
H       -1.5695649706   -1.4878945185   -0.7874822714
13   
From optimize.out: Frame 17 / 36, Energy=    -286.8972408263
C        1.4760772433    0.3379304637   -2.6832604666
C        1.1375747663   -0.9872268147   -2.6481371232
C       -0.1897751442   -1.5168506747   -2.4721551404
C       -1.2077673482    0.4942793914   -1.3855308946
C       -0.5205382979    1.5010234179   -2.1808127306
N        0.6513970755    1.4483372005   -2.7279767806
H        2.5311947364    0.5900687427   -2.7842644377
H        1.9648678289   -1.6966096087   -2.7419580509
H       -0.5897793073   -2.2886953668   -3.1242260415
H       -1.9066444722    0.8653189122   -0.6364408525
H       -1.0423186215    2.4562786469   -2.2968241636
C       -1.0423097011   -0.8488813616   -1.5124815241
H       -1.6087629124   -1.4843528686   -0.8218830971
13   
From optimize.out: Frame 18 / 36, Energy=    -286.9015323560
C        1.4793133690    0.3435516016   -2.7015944457
C        1.1354609305   -0.9831770777   -2.6670112377
C       -0.1787787134   -1.5184864367   -2.4506534346
C       -1.2186787454    0.4992783731   -1.3938640737
C       -0.5065780558    1.5144340352   -2.1562226792
N        0.6592165902    1.4597561056   -2.7166670299
H        2.5330988387    0.5930469228   -2.8190364636
H        1.9603431299   -1.6926786334   -2.7848647810
H       -0.5506397183   -2.3574319993   -3.0307164994
H       -1.9537982261    0.8631571690   -0.6768634935
H       -1.0079877616    2.4847413362   -2.2369750426
C       -1.0474600603   -0.8484048512   -1.5197210896
H       -1.6502957316   -1.4871664650   -0.8617610331
13   
From optimize.out: Frame 19 / 36, Energy=    -286.9056453037
C        1.4780535005    0.3479887625   -2.7175803635
C        1.1314995158   -0.9795277547   -2.6849573686
C       -0.1708022527   -1.5241791009   -2.4336267259
C       -1.2241965493    0.5048969244   -1.4014829924
C       -0.4938346020    1.5260478551   -2.1305075832
N        0.6649237016    1.4705783672   -2.7057141203
H        2.5308518542    0.5932762387   -2.8505392603
H        1.9561383513   -1.6855588950   -2.8250056855
H       -0.5081199351   -2.4245265835   -2.9365533701
H       -1.9918060382    0.8600761130   -0.7155173249
H       -0.9780998306    2.5075606471   -2.1774624946
C       -1.0498529509   -0.8459202924   -1.5311879502
H       -1.6915389189   -1.4800922015   -0.9058160642
13   
From optimize.out: Frame 20 / 36, Energy=    -286.9096212140
C        1.4837630066    0.3520968439   -2.7419843952
C        1.1321155521   -0.9753739545   -2.7013718031
C       -0.1597749152   -1.5192523155   -2.4047110369
C       -1.2365009216    0.5076438676   -1.4086369883
C       -0.4784579053    1.5351281994   -2.1022758701
N        0.6730145556    1.4811216597   -2.6943184878
H        2.5327770692    0.5976704646   -2.8983593470
H        1.9479004394   -1.6870414063   -2.8637382205
H       -0.4583932985   -2.4688102363   -2.8343475907
H       -2.0370205535    0.8605165536   -0.7605633229
H       -0.9431214989    2.5280293759   -2.1131091144
C       -1.0622685070   -0.8525253924   -1.5385466161
H       -1.7408171771   -1.4885835796   -0.9539885106
13   
From optimize.out: Frame 21 / 36, Energy=    -286.9132963059
C        1.4791077709    0.3556142899   -2.7603862318
C        1.1264670834   -0.9693471004   -2.7161328735
C       -0.1549594602   -1.5252376492   -2.3861247287
C       -1.2399986948    0.5153286899   -1.4124121186
C       -0.4645159001    1.5410187852   -2.0754895822
N        0.6782625805    1.4905945852   -2.6856765835
H        2.5263023457    0.5961244452   -2.9354265215
H        1.9407741838   -1.6778583871   -2.8951856313
H       -0.4099608565   -2.5198645044   -2.7342138121
H       -2.0682669615    0.8630393862   -0.7983559642
H       -0.9122746318    2.5416255294   -2.0532540147
C       -1.0680897699   -0.8512348338   -1.5518683998
H       -1.7796318440   -1.4891831563   -1.0114248416
13   
From optimize.out: Frame 22 / 36, Energy=    -286.9165534532
C        1.4755224068    0.3558145016   -2.7810523495
C        1.1275017293   -0.9682341906   -2.7287183442
C       -0.1458455643   -1.5273857111   -2.3593057971
C       -1.2433362950    0.5183786774   -1.4217334857
C       -0.4539113563    1.5468144885   -2.0436399400
N        0.6843820246    1.4997390155   -2.6710438233
H        2.5176660106    0.5950036347   -2.9853450085
H        1.9356725500   -1.6765908170   -2.9306173741
H       -0.3517868582   -2.5560551438   -2.6330231239
H       -2.0995240341    0.8618477849   -0.8458113944
H       -0.8859413033    2.5532352372   -1.9840806409
C       -1.0753232868   -0.8579911942   -1.5667005744
H       -1.8318601775   -1.4739562031   -1.0648794476
13   
From optimize.out: Frame 23 / 36, Energy=    -286.9192346348
C        1.4716351283    0.3600155757   -2.8036736017
C        1.1249361246   -0.9588741998   -2.7371487145
C       -0.1389645619   -1.5295584956   -2.3277010466
C       -1.2526120224    0.5276226868   -1.4260862883
C       -0.4387761125    1.5443941890   -2.0160107212
N        0.6965224078    1.5083396622   -2.6585884810
H        2.5075469277    0.5949039495   -3.0425023239
H        1.9255484278   -1.6684475166   -2.9572751312
H       -0.3012165560   -2.5836012520   -2.5266061778
H       -2.1332086097    0.8739385316   -0.8908829556
H       -0.8470104230    2.5574709776   -1.9166606903
C       -1.0920851807   -0.8624890775   -1.5793713642
H       -1.8690997043   -1.4930949509   -1.1334438072
13   
From optimize.out: Frame 24 / 36, Energy=    -286.9212535515
C        1.4615153614    0.3598584878   -2.8178174133
C        1.1247289531   -0.9597145839   -2.7401413718
C       -0.1252848835   -1.5359469056   -2.2946917144
C       -1.2587373608    0.5336474795   -1.4439110665
C       -0.4314524424    1.5469072374   -1.9831097657
N        0.7102124819    1.5166758622   -2.6336612239
H        2.4867437658    0.5892316522   -3.1056987726
H        1.9162541752   -1.6659559599   -2.9943505443
H       -0.2364746739   -2.6079364725   -2.4255395203
H       -2.1612244967    0.8766769895   -0.9452408569
H       -0.8187455775    2.5629682884   -1.8428291426
C       -1.1013796919   -0.8685232434   -1.5988304327
H       -1.9129397651   -1.4772687517   -1.1901294785
13   
From optimize.out: Frame 25 / 36, Energy=    -286.9226474304
C        1.4559294590    0.3658532337   -2.8332183960
C        1.1260179703   -0.9553319486   -2.7375958337
C       -0.1093444458   -1.5406160916   -2.2522224654
C       -1.2743391504    0.5388241194   -1.4680456996
C       -0.4221098723    1.5436487690   -1.9560574234
N        0.7355000657    1.5252644343   -2.6015690723
H        2.4655232057    0.5867899256   -3.1797352362
H        1.9036190698   -1.6597790530   -3.0307863510
H       -0.1851256615   -2.6223683475   -2.3245481167
H       -2.1936206980    0.8830205751   -1.0020752185
H       -0.7812808238    2.5614447781   -1.7685809800
C       -1.1198265368   -0.8752961360   -1.6173764305
H       -1.9477267363   -1.4808341784   -1.2441400802
13   
From optimize.out: Frame 26 / 36, Energy=    -286.9236393060
C        1.4461981213    0.3709230606   -2.8411839395
C        1.1238768606   -0.9562505437   -2.7315008126
C       -0.0898461970   -1.5441111885   -2.2113314724
C       -1.2887114081    0.5451320495   -1.5045536844
C       -0.4133101483    1.5428000599   -1.9219369392
N        0.7662225107    1.5299009141   -2.5545038393
H        2.4341950907    0.5809749916   -3.2535434340
H        1.8853167145   -1.6567385446   -3.0692240828
H       -0.1342573769   -2.6305033262   -2.2325648835
H       -2.2193909432    0.8881280894   -1.0607138720
H       -0.7544353162    2.5599061749   -1.7056636095
C       -1.1328743141   -0.8781047308   -1.6410895951
H       -1.9697677483   -1.4814369262   -1.2881411392
13   
From optimize.out: Frame 27 / 36, Energy=    -286.9240924059
C        1.4439980894    0.3790593492   -2.8469218946
C        1.1276026913   -0.9552479596   -2.7258748939
C       -0.0724746696   -1.5460661000   -2.1736844975
C       -1.3086646418    0.5465649050   -1.5470031090
C       -0.4119266762    1.5392821633   -1.9087550284
N        0.8011331736    1.5268377872   -2.5041473805
H        2.4094673177    0.5823799073   -3.3147944713
H        1.8720878320   -1.6516119085   -3.1042881848
H       -0.1050931511   -2.6338336422   -2.1647445706
H       -2.2414242899    0.8909553235   -1.1071103782
H       -0.7297076661    2.5528928411   -1.6524519846
C       -1.1482577400   -0.8816733475   -1.6624711979
H       -1.9835244237   -1.4789192390   -1.3037037123
13   
From optimize.out: Frame 28 / 36, Energy=    -286.9242215771
C        1.4416722266    0.3820391698   -2.8474755739
C        1.1222065533   -0.9570990921   -2.7272500346
C       -0.0716326996   -1.5458065722   -2.1740331575
C       -1.3049966260    0.5460800295   -1.5460096703
C       -0.4058383812    1.5396723655   -1.8922729040
N        0.8068382633    1.5242402463   -2.4905198862
H        2.4084828239    0.5822591790   -3.3148194128
H        1.8691173878   -1.6524172549   -3.1044145014
H       -0.1104774625   -2.6329564879   -2.1725475942
H       -2.2406241903    0.8885291840   -1.1103338302
H       -0.7396419996    2.5571982392   -1.6754892075
C       -1.1455381911   -0.8794292070   -1.6632715580
H       -1.9763518589   -1.4816897191   -1.2975139728
13   
From optimize.out: Frame 29 / 36, Energy=    -286.9242770192
C        1.4454826249    0.3788631872   -2.8397916635
C        1.1234745726   -0.9594838505   -2.7281397302
C       -0.0737516014   -1.5446159330   -2.1823613247
C       -1.3056276072    0.5476422457   -1.5457315264
C       -0.4141498354    1.5415402999   -1.9047886820
N        0.8036109043    1.5209490288   -2.4895418820
H        2.4134435368    0.5818611122   -3.3031895820
H        1.8706544384   -1.6553389202   -3.1034728783
H       -0.1174272098   -2.6315094509   -2.1917173587
H       -2.2365999247    0.8910173666   -1.1008763758
H       -0.7469423804    2.5586227134   -1.6846212834
C       -1.1427731316   -0.8772188810   -1.6597356288
H       -1.9661785408   -1.4817088380   -1.2819833876
13   
From optimize.out: Frame 30 / 36, Energy=    -286.9242986986
C        1.4468775390    0.3805945366   -2.8407687528
C        1.1238906242   -0.9577716628   -2.7302705603
C       -0.0756066856   -1.5433301415   -2.1820582734
C       -1.3052622587    0.5461389575   -1.5423764763
C       -0.4138616062    1.5398636528   -1.9072190555
N        0.8061717680    1.5214823006   -2.4885166604
H        2.4167190435    0.5829452971   -3.3003170289
H        1.8707784064   -1.6543334324   -3.1046533945
H       -0.1212847173   -2.6301753458   -2.1934295698
H       -2.2371486623    0.8902356651   -1.0998929608
H       -0.7477304795    2.5571177923   -1.6898181366
C       -1.1429012176   -0.8797936918   -1.6570240634
H       -1.9674259083   -1.4823538476   -1.2796063708
13   
From optimize.out: Frame 31 / 36, Energy=    -286.9243102094
C        1.4471864828    0.3810132967   -2.8390960636
C        1.1231244612   -0.9578369759   -2.7314531367
C       -0.0745919680   -1.5441164658   -2.1815773017
C       -1.3045936879    0.5468348623   -1.5398025477
C       -0.4138343571    1.5393348029   -1.9066711161
N        0.8080803182    1.5214007098   -2.4859505835
H        2.4178874566    0.5823832470   -3.2974925231
H        1.8688846479   -1.6535693870   -3.1090507760
H       -0.1204125714   -2.6310497179   -2.1954059485
H       -2.2375153526    0.8909648442   -1.0997544995
H       -0.7504113648    2.5570955298   -1.6963705254
C       -1.1425895419   -0.8801262434   -1.6546439393
H       -1.9679986772   -1.4817084227   -1.2786823423
13   
From optimize.out: Frame 32 / 36, Energy=    -286.9243200810
C        1.4471298013    0.3813990554   -2.8361349481
C        1.1207176768   -0.9582655768   -2.7330939912
C       -0.0745437712   -1.5436810807   -2.1822453960
C       -1.3025733370    0.5476714114   -1.5380349342
C       -0.4149361139    1.5398352211   -1.9073428675
N        0.8107186141    1.5218022231   -2.4823678109
H        2.4193366618    0.5808728116   -3.2926189017
H        1.8649271615   -1.6537327275   -3.1138639879
H       -0.1196245526   -2.6307986149   -2.1961811693
H       -2.2355969079    0.8906169350   -1.0975353433
H       -0.7549299656    2.5579954042   -1.7046454272
C       -1.1409151335   -0.8804505632   -1.6533535567
H       -1.9664942882   -1.4826444187   -1.2785329694
13   
From optimize.out: Frame 33 / 36, Energy=    -286.9243249140
C        1.4482535864    0.3814942475   -2.8348006861
C        1.1202486681   -0.9583234821   -2.7341693348
C       -0.0754907322   -1.5435633810   -2.1843880274
C       -1.3012871735    0.5473246314   -1.5352807374
C       -0.4161736053    1.5398649618   -1.9096069926
N        0.8101931010    1.5218380296   -2.4841777855
H        2.4222771955    0.5809058564   -3.2874528457
H        1.8648512950   -1.6537800454   -3.1141909968
H       -0.1212457645   -2.6306852377   -2.1996408789
H       -2.2333425450    0.8904150884   -1.0927345361
H       -0.7578974916    2.5579874013   -1.7101457473
C       -1.1409788379   -0.8804987541   -1.6524615364
H       -1.9661918501   -1.4823592361   -1.2769011986
13   
From optimize.out: Frame 34 / 36, Energy=    -286.9243287026
C        1.4492437770    0.3816112176   -2.8340202236
C        1.1206386402   -0.9582665738   -2.7337185164
C       -0.0758854573   -1.5430459994   -2.1850076317
C       -1.3005212058    0.5469236879   -1.5335812644
C       -0.4171609423    1.5394305154   -1.9110428555
N        0.8094002626    1.5215661019   -2.4865764610
H        2.4236641591    0.5813005201   -3.2855606017
H        1.8649802927   -1.6539172001   -3.1140238272
H       -0.1220026173   -2.6301329006   -2.2001330107
H       -2.2311069902    0.8906071897   -1.0881818735
H       -0.7592361841    2.5574748436   -1.7124372504
C       -1.1416855379   -0.8804638692   -1.6532125559
H       -1.9671123510   -1.4824674532   -1.2784552314
13   
From optimize.out: Frame 35 / 36, Energy=    -286.9243309222
C        1.4489482326    0.3816216967   -2.8349530208
C        1.1214192032   -0.9583139916   -2.7324522603
C       -0.0759111121   -1.5426523061   -2.1854020191
C       -1.3002184860    0.5465842321   -1.5322399280
C       -0.4176088157    1.5395755882   -1.9117637671
N        0.8079664955    1.5215830253   -2.4896775781
H        2.4236858893    0.5812170365   -3.2857490499
H        1.8662359642   -1.6543736503   -3.1111042642
H       -0.1220651535   -2.6297348391   -2.2000499803
H       -2.2292313247    0.8904696239   -1.0836844731
H       -0.7589865720    2.5576362746   -1.7121364789
C       -1.1425180677   -0.8802897401   -1.6547613599
H       -1.9685004073   -1.4827028702   -1.2819771238
