13   
From optimize.out: Frame 1 / 17, Energy=    -286.7157761222
C        1.6630518796    0.3589468088   -1.9984448365
C        0.9334607328   -0.9766053621   -1.7303391242
C       -0.6597255466   -0.8665261191   -2.0919807589
C       -1.3094040178    0.3858539431   -0.5713577353
C       -0.6700297857    0.7356178454   -1.9869192325
N        0.8902582251    1.3045581267   -2.3155072900
H        2.6768915914    0.8048705077   -1.8053571954
H        1.4409179078   -1.9166429285   -1.4602970878
H       -0.8693418728   -1.6622391780   -2.6983463026
H       -2.3794019655    0.5526306220   -0.4176937223
H       -1.4154662042    1.2737193569   -2.6458474426
C       -0.8776620672   -0.9645011497   -0.6704734833
H       -1.1630628131   -1.9887927214   -0.3695064719
13   
From optimize.out: Frame 2 / 17, Energy=    -286.7574040054
C        1.5951352195    0.3468097573   -1.9622920595
C        0.9143954427   -0.9774102866   -1.7299884341
C       -0.6210860365   -0.8633068469   -2.1243417980
C       -1.2645659843    0.3979500607   -0.5896712736
C       -0.6827667505    0.7285856770   -2.0204564979
N        0.8165753934    1.3036599911   -2.2948686160
H        2.6123335881    0.7428789836   -1.7475977261
H        1.4170012980   -1.9140347981   -1.4652243446
H       -0.8345620852   -1.6577534009   -2.7744320635
H       -2.3203539943    0.5817539622   -0.3817352575
H       -1.4207098857    1.2608612815   -2.6667183682
C       -0.8355593704   -0.9555767239   -0.6847167318
H       -1.1153507709   -1.9535279051   -0.3200275125
13   
From optimize.out: Frame 3 / 17, Energy=    -286.7889980948
C        1.5261657999    0.3365168275   -1.9220526343
C        0.8773057140   -0.9695021683   -1.7230073925
C       -0.5938259246   -0.8621153116   -2.1583675627
C       -1.2100416301    0.4067005974   -0.6166685320
C       -0.6868618663    0.7204493244   -2.0583323030
N        0.7414296649    1.2961282493   -2.2714789338
H        2.5443558180    0.6828078499   -1.6791624110
H        1.3730327932   -1.9035598459   -1.4605171840
H       -0.8243371365   -1.6433942721   -2.8426760174
H       -2.2496460817    0.6005771290   -0.3543687790
H       -1.4221825601    1.2458597085   -2.6935885279
C       -0.7756573374   -0.9497657025   -0.7052909797
H       -1.0392511894   -1.9198126338   -0.2765594260
13   
From optimize.out: Frame 4 / 17, Energy=    -286.8103184649
C        1.4677924753    0.3332679401   -1.8750237314
C        0.8315411165   -0.9665209227   -1.7014742929
C       -0.5801858548   -0.8645463642   -2.1975900621
C       -1.1588071022    0.4147359658   -0.6451875142
C       -0.6943325811    0.7141641340   -2.0980494280
N        0.6787512500    1.2893978068   -2.2478057707
H        2.4882106825    0.6340416615   -1.6135639708
H        1.3206869763   -1.9008210659   -1.4439648230
H       -0.8365172337   -1.6279157445   -2.9135018417
H       -2.1809405415    0.6168486303   -0.3315280792
H       -1.4304715278    1.2343680581   -2.7237480682
C       -0.7058036836   -0.9470235184   -0.7313176387
H       -0.9394379120   -1.8891068290   -0.2393154622
13   
From optimize.out: Frame 5 / 17, Energy=    -286.8234886508
C        1.4283482228    0.3342798308   -1.8311406160
C        0.7889412257   -0.9654038075   -1.6664636442
C       -0.5752789987   -0.8676756559   -2.2345016148
C       -1.1278125308    0.4188297120   -0.6701530270
C       -0.7081656135    0.7077543864   -2.1309139123
N        0.6396349713    1.2859143213   -2.2218253208
H        2.4555706417    0.5901586242   -1.5695043632
H        1.2801416203   -1.9016680557   -1.4310806435
H       -0.8583552672   -1.6092033744   -2.9782658564
H       -2.1346361125    0.6263045278   -0.3165393637
H       -1.4429503723    1.2248798589   -2.7516019713
C       -0.6425229590   -0.9452706076   -0.7557021019
H       -0.8424287639   -1.8580100085   -0.2043782483
13   
From optimize.out: Frame 6 / 17, Energy=    -286.8308169607
C        1.4128775869    0.3396922356   -1.7988305945
C        0.7713511292   -0.9667300138   -1.6309107893
C       -0.5689006140   -0.8749061595   -2.2562903643
C       -1.1265188063    0.4195892820   -0.6847608737
C       -0.7202687721    0.6971286530   -2.1470528685
N        0.6207316574    1.2864573371   -2.1869759879
H        2.4526143073    0.5607887944   -1.5659399196
H        1.2851629671   -1.9042680147   -1.4592146400
H       -0.8752369217   -1.5941075543   -3.0193785844
H       -2.1238714484    0.6377405118   -0.3130991679
H       -1.4471374056    1.2146101516   -2.7720281372
C       -0.6156003353   -0.9464404860   -0.7639086271
H       -0.8047172807   -1.8286649854   -0.1636801289
13   
From optimize.out: Frame 7 / 17, Energy=    -286.8348247887
C        1.4078873573    0.3460972252   -1.7821648556
C        0.7594878529   -0.9649478639   -1.5917856078
C       -0.5567261819   -0.8798226586   -2.2734347161
C       -1.1330088876    0.4119709513   -0.6952146787
C       -0.7296822045    0.6865871955   -2.1575894259
N        0.6130968200    1.2864716335   -2.1621076352
H        2.4570606961    0.5444455622   -1.5744199837
H        1.2950361128   -1.9011410615   -1.4861327012
H       -0.8938336537   -1.5748144839   -3.0468953795
H       -2.1201395582    0.6432842227   -0.3065340957
H       -1.4441872697    1.2075017715   -2.7924179653
C       -0.6009916432   -0.9550399723   -0.7658322031
H       -0.7935133765   -1.8097027698   -0.1275414357
13   
From optimize.out: Frame 8 / 17, Energy=    -286.8355571031
C        1.4044787622    0.3530665850   -1.7456181061
C        0.7682513181   -0.9781364180   -1.5891152858
C       -0.5532724780   -0.8880904429   -2.2734870966
C       -1.1503720017    0.4146098569   -0.7059708348
C       -0.7309540422    0.6760161354   -2.1633838460
N        0.6113800535    1.2845494932   -2.1378585834
H        2.4604172453    0.5429877810   -1.5619725004
H        1.3296670056   -1.9063209846   -1.5729028020
H       -0.9293550263   -1.5749503446   -3.0331083239
H       -2.1351224252    0.6520659922   -0.3160941850
H       -1.4290092104    1.1984530494   -2.8154422638
C       -0.5925418080   -0.9476480172   -0.7527610163
H       -0.7930813293   -1.7857129342   -0.0943558393
13   
From optimize.out: Frame 9 / 17, Energy=    -286.8356440959
C        1.4102870167    0.3635439927   -1.7567304654
C        0.7535705087   -0.9693757351   -1.5607358024
C       -0.5413303053   -0.8883183138   -2.3061522251
C       -1.1509488117    0.3930634875   -0.7188653956
C       -0.7425262528    0.6660847684   -2.1747960343
N        0.6096108528    1.2880836131   -2.1249869562
H        2.4697640911    0.5424821271   -1.5764894792
H        1.3119610041   -1.8996190408   -1.5012360138
H       -0.9702565196   -1.5414969611   -3.0625159817
H       -2.1166177116    0.6431148034   -0.2937877623
H       -1.4273094186    1.2003349428   -2.8318240435
C       -0.5664987288   -0.9678134826   -0.7652835512
H       -0.7792196611   -1.7891944498   -0.0886669727
13   
From optimize.out: Frame 10 / 17, Energy=    -286.8359926413
C        1.4147202343    0.3536082444   -1.7801907520
C        0.7636572268   -0.9662157511   -1.5514092893
C       -0.5353607001   -0.8847951794   -2.2807005364
C       -1.1554462943    0.4010192991   -0.7071554355
C       -0.7327019974    0.6738388781   -2.1594489580
N        0.6130135404    1.2873304654   -2.1349226675
H        2.4692551800    0.5502458190   -1.5915070634
H        1.3308115185   -1.8915727877   -1.5478448129
H       -0.9307142771   -1.5631013259   -3.0331489861
H       -2.1288131940    0.6492683320   -0.2983739030
H       -1.4200517290    1.1999774954   -2.8209480852
C       -0.5997274339   -0.9639075324   -0.7514513150
H       -0.8281560104   -1.8048062051   -0.1049688790
13   
From optimize.out: Frame 12 / 17, Energy=    -286.8364750842
C        1.4104949726    0.3593059717   -1.7603366199
C        0.7606697526   -0.9709144459   -1.5735495489
C       -0.5463536684   -0.8864964041   -2.2912451080
C       -1.1506862690    0.4021267266   -0.7141688441
C       -0.7360370719    0.6735892715   -2.1672940136
N        0.6137281824    1.2882715703   -2.1375379559
H        2.4656007762    0.5522521103   -1.5694124440
H        1.3210112348   -1.8998374815   -1.5285089099
H       -0.9505114404   -1.5703055780   -3.0329631185
H       -2.1194349576    0.6475971919   -0.2933297557
H       -1.4241189282    1.2038217230   -2.8250870635
C       -0.5818231393   -0.9585139379   -0.7586035932
H       -0.8020533801   -1.8000069662   -0.1100337080
13   
From optimize.out: Frame 14 / 17, Energy=    -286.8364997532
C        1.4108810495    0.3577524146   -1.7619442930
C        0.7599973511   -0.9704549078   -1.5687401339
C       -0.5448873636   -0.8843107629   -2.2902732677
C       -1.1529640670    0.4019125364   -0.7145151715
C       -0.7368200837    0.6752639638   -2.1665096289
N        0.6145902322    1.2868687839   -2.1393106090
H        2.4658363327    0.5515374449   -1.5710546479
H        1.3220284462   -1.8986590520   -1.5328414579
H       -0.9467871499   -1.5721364391   -3.0289247882
H       -2.1206533277    0.6470210129   -0.2912474660
H       -1.4238562632    1.2048843643   -2.8261209538
C       -0.5813529235   -0.9573033370   -0.7571814936
H       -0.8055261692   -1.8014862701   -0.1134067719
13   
From optimize.out: Frame 15 / 17, Energy=    -286.8365024097
C        1.4100381534    0.3583209976   -1.7620281492
C        0.7594926472   -0.9711972201   -1.5707357816
C       -0.5458867486   -0.8853050020   -2.2915242312
C       -1.1515882090    0.4022364790   -0.7153354605
C       -0.7364870105    0.6741883094   -2.1673244665
N        0.6139920048    1.2877469960   -2.1386721453
H        2.4638387794    0.5535359716   -1.5663594836
H        1.3217321170   -1.8992974672   -1.5341905321
H       -0.9481158109   -1.5746659434   -3.0285383065
H       -2.1177543182    0.6490778929   -0.2897997914
H       -1.4232497225    1.2045441747   -2.8265041661
C       -0.5800092465   -0.9573445006   -0.7575679992
H       -0.8055165717   -1.8009509363   -0.1134901699
13   
From optimize.out: Frame 16 / 17, Energy=    -286.8365048754
C        1.4102316690    0.3585054481   -1.7613480537
C        0.7594152978   -0.9709177610   -1.5696234284
C       -0.5456108731   -0.8847237849   -2.2919032825
C       -1.1521563214    0.4018566617   -0.7155710342
C       -0.7371042458    0.6745946822   -2.1673152179
N        0.6143536182    1.2873991490   -2.1394438896
H        2.4645779138    0.5533734748   -1.5678703245
H        1.3219546638   -1.8988923210   -1.5336952955
H       -0.9467773843   -1.5754434620   -3.0279651572
H       -2.1172936849    0.6493774974   -0.2882266199
H       -1.4237691181    1.2049957615   -2.8267053432
C       -0.5801774087   -0.9575275308   -0.7576271751
H       -0.8071580625   -1.8017080633   -0.1147758615
