13   
From optimize.out: Frame 1 / 35, Energy=    -286.6050347009
C        1.6987178982    0.3439914629   -2.4968432687
C        1.3985488518   -1.0771366503   -2.3993733895
C       -0.2462008801   -1.3163085569   -2.4570825950
C       -1.2727024539    0.3886134487   -1.1175432229
C       -0.7382454816    1.2324696010   -2.2976225398
N        0.7497675172    1.2723074862   -2.7751319201
H        2.5639275700    0.9632764448   -2.7376736303
H        2.0962060603   -1.8907336524   -2.1943735568
H       -0.3107192097   -1.1928515611   -3.6152681802
H       -0.9123151790    0.8119218090   -0.1634438137
H       -1.5711718988    1.6512583597   -2.8228716930
C       -1.7258633385   -0.9843896836   -1.1815281029
H       -2.0349036179   -1.8126379855   -0.5028901767
13   
From optimize.out: Frame 2 / 35, Energy=    -286.6696999362
C        1.6402533276    0.3493847227   -2.4694762631
C        1.3338258653   -1.0440118083   -2.3851853106
C       -0.2556612130   -1.3137731764   -2.4752660559
C       -1.2240952288    0.3679900882   -1.1350994276
C       -0.7109330642    1.2060032737   -2.3082707576
N        0.7032624453    1.2889210126   -2.7623470457
H        2.5507846017    0.9126578280   -2.6818650922
H        2.0329086461   -1.8494780741   -2.1676941971
H       -0.3724040928   -1.1929357080   -3.6094777748
H       -0.8964336616    0.7982626859   -0.1736810943
H       -1.5303492459    1.6359142819   -2.8564801661
C       -1.6418367186   -0.9798392181   -1.2136536351
H       -1.9342758231   -1.7893153857   -0.5231492694
13   
From optimize.out: Frame 3 / 35, Energy=    -286.7267328039
C        1.5817074534    0.3473821322   -2.4381096710
C        1.2738806471   -1.0189559076   -2.3717405122
C       -0.2662139844   -1.3171925749   -2.4962895489
C       -1.1776767740    0.3566610997   -1.1534266957
C       -0.6807791230    1.1939692346   -2.3200726011
N        0.6456864336    1.2972514598   -2.7460992363
H        2.5231888935    0.8689247778   -2.6194161301
H        1.9781522360   -1.8152452796   -2.1439973428
H       -0.4303337550   -1.2062761461   -3.6101348986
H       -0.8791888837    0.7940942079   -0.1863688386
H       -1.4913775035    1.6314308426   -2.8823730487
C       -1.5529472914   -0.9747775430   -1.2497020806
H       -1.8290525106   -1.7674857808   -0.5439154849
13   
From optimize.out: Frame 4 / 35, Energy=    -286.7699066942
C        1.5353241713    0.3451118765   -2.4118346757
C        1.2190830974   -0.9994403776   -2.3610289463
C       -0.2805469137   -1.3299436498   -2.5128198993
C       -1.1394941854    0.3517447074   -1.1703788888
C       -0.6590444898    1.1967181762   -2.3297571444
N        0.5999886332    1.3089885320   -2.7325301736
H        2.5058680711    0.8217666861   -2.5576591148
H        1.9304622979   -1.7859107298   -2.1242375346
H       -0.4946866365   -1.2369713443   -3.6064072611
H       -0.8853829253    0.7954963442   -0.1947602125
H       -1.4646151309    1.6439519085   -2.9002303627
C       -1.4568437754   -0.9734795574   -1.2921407613
H       -1.7150663758   -1.7482520495   -0.5678611145
13   
From optimize.out: Frame 5 / 35, Energy=    -286.7998354944
C        1.5086219436    0.3420993875   -2.3961822206
C        1.1751366663   -0.9842263996   -2.3560687506
C       -0.2936109479   -1.3406738164   -2.5197680804
C       -1.1190007721    0.3502964604   -1.1831924585
C       -0.6525585741    1.2059039190   -2.3334682622
N        0.5812626856    1.3242204797   -2.7269175088
H        2.5065894524    0.7673988988   -2.5054974685
H        1.8928307069   -1.7639433571   -2.1157128118
H       -0.5592855795   -1.2734279248   -3.5926879052
H       -0.9307809254    0.7997974923   -0.1971838696
H       -1.4534580159    1.6663594677   -2.9086536282
C       -1.3587086670   -0.9742075086   -1.3353079742
H       -1.6019921348   -1.7298165765   -0.5910051509
13   
From optimize.out: Frame 6 / 35, Energy=    -286.8199200278
C        1.4934352866    0.3372263762   -2.3934995226
C        1.1504994635   -0.9788256361   -2.3626792964
C       -0.2962395557   -1.3558994757   -2.5228589281
C       -1.1176193271    0.3530982526   -1.1913774995
C       -0.6511963637    1.2189772390   -2.3284964619
N        0.5749886280    1.3374707057   -2.7220618231
H        2.5112847681    0.7186279504   -2.4679954315
H        1.8788060143   -1.7512152286   -2.1276444555
H       -0.6088311586   -1.3235056336   -3.5771846684
H       -1.0143425341    0.8067198295   -0.1971706063
H       -1.4399472047    1.7077384099   -2.9032228898
C       -1.2724738796   -0.9745444374   -1.3672767511
H       -1.5133182987   -1.7060878293   -0.6001777554
13   
From optimize.out: Frame 7 / 35, Energy=    -286.8332250146
C        1.4848701041    0.3302566301   -2.4011472880
C        1.1456096892   -0.9821324339   -2.3782258808
C       -0.2853645391   -1.3800587529   -2.5274193495
C       -1.1281113459    0.3586154295   -1.1974110155
C       -0.6500672170    1.2341935194   -2.3173597018
N        0.5692583539    1.3416097621   -2.7177102341
H        2.5140434927    0.6834579767   -2.4466689765
H        1.8896165036   -1.7441726087   -2.1558899952
H       -0.6352891763   -1.3906293438   -3.5659454552
H       -1.1169058775    0.8142252435   -0.2012515847
H       -1.4207040027    1.7722472264   -2.8763531201
C       -1.2103271830   -0.9708094198   -1.3819072725
H       -1.4615829641   -1.6770227062   -0.5943562156
13   
From optimize.out: Frame 8 / 35, Energy=    -286.8433595581
C        1.4802298251    0.3241433649   -2.4135167200
C        1.1472216005   -0.9874292526   -2.3899675315
C       -0.2724190611   -1.4033078837   -2.5258992171
C       -1.1389693139    0.3639189792   -1.2064902869
C       -0.6482745794    1.2531873808   -2.3041450599
N        0.5672221475    1.3424149837   -2.7178224638
H        2.5160077964    0.6587698295   -2.4397672986
H        1.9066255612   -1.7395361933   -2.1837218583
H       -0.6522280820   -1.4631665431   -3.5494018482
H       -1.2179908985    0.8175797959   -0.2144791741
H       -1.4001950427    1.8456426823   -2.8355844702
C       -1.1641136013   -0.9662251278   -1.3897192247
H       -1.4280705138   -1.6562114933   -0.5911309363
13   
From optimize.out: Frame 9 / 35, Energy=    -286.8517835581
C        1.4769856699    0.3188257127   -2.4269425852
C        1.1522791880   -0.9940620298   -2.4041234482
C       -0.2583155361   -1.4276533969   -2.5215353477
C       -1.1499651854    0.3706719006   -1.2164056533
C       -0.6446282089    1.2734498192   -2.2886831119
N        0.5673586115    1.3439744119   -2.7133878363
H        2.5163491378    0.6425666391   -2.4397544915
H        1.9269348005   -1.7366154132   -2.2178512600
H       -0.6629293049   -1.5434424489   -3.5290798935
H       -1.3186133073    0.8213483035   -0.2355089744
H       -1.3758901226    1.9184312648   -2.7880038541
C       -1.1266149427   -0.9602446757   -1.3925792458
H       -1.4079049619   -1.6374695647   -0.5877903877
13   
From optimize.out: Frame 10 / 35, Energy=    -286.8590100699
C        1.4751203616    0.3158770411   -2.4417561551
C        1.1574471550   -0.9985120605   -2.4137218276
C       -0.2456316879   -1.4479515564   -2.5115296566
C       -1.1596411559    0.3765723979   -1.2283318681
C       -0.6396664939    1.2946403915   -2.2727041836
N        0.5696260267    1.3461539268   -2.7113649660
H        2.5168320337    0.6322228656   -2.4497586943
H        1.9458363534   -1.7326069609   -2.2498063027
H       -0.6677056878   -1.6300584180   -3.5009456480
H       -1.4102856800    0.8207189586   -0.2629098949
H       -1.3493669139    1.9918978746   -2.7316670052
C       -1.0981208817   -0.9543991651   -1.3958344963
H       -1.3993975914   -1.6247747728   -0.5913153910
13   
From optimize.out: Frame 11 / 35, Energy=    -286.8653295732
C        1.4735400993    0.3142663202   -2.4564016986
C        1.1634685585   -1.0026535167   -2.4293180816
C       -0.2309063138   -1.4707093581   -2.5016052052
C       -1.1691064204    0.3850177150   -1.2379673658
C       -0.6321849276    1.3171937087   -2.2523086507
N        0.5734458945    1.3523262650   -2.7013549408
H        2.5168404452    0.6256198332   -2.4624106179
H        1.9654660984   -1.7281949819   -2.2917308760
H       -0.6652528963   -1.7276534854   -3.4680578744
H       -1.5006972879    0.8209882793   -0.2939306702
H       -1.3208209184    2.0574712715   -2.6743091175
C       -1.0747087407   -0.9461183767   -1.3971532102
H       -1.4040377529   -1.6077731514   -0.5950977805
13   
From optimize.out: Frame 12 / 35, Energy=    -286.8709101458
C        1.4727863393    0.3163549608   -2.4713464674
C        1.1668254902   -1.0023789570   -2.4369266445
C       -0.2200829236   -1.4863717311   -2.4853058331
C       -1.1767153183    0.3913913095   -1.2499803521
C       -0.6239632315    1.3382953497   -2.2351216257
N        0.5783990675    1.3589887803   -2.6985899297
H        2.5175965660    0.6229806886   -2.4833537454
H        1.9799799819   -1.7210078452   -2.3273171748
H       -0.6578603960   -1.8266382805   -3.4234410039
H       -1.5745271784    0.8162192064   -0.3271669884
H       -1.2898811554    2.1231738032   -2.6100829792
C       -1.0606485785   -0.9399830436   -1.4025128366
H       -1.4168628254   -1.6012437186   -0.6105005087
13   
From optimize.out: Frame 13 / 35, Energy=    -286.8760189169
C        1.4729238708    0.3179376664   -2.4851990397
C        1.1711475998   -1.0033522043   -2.4553097613
C       -0.2050461724   -1.5044932200   -2.4712408046
C       -1.1848051108    0.4006949034   -1.2576071833
C       -0.6137750529    1.3615717047   -2.2102643404
N        0.5856241771    1.3701010270   -2.6826094547
H        2.5192098908    0.6196814929   -2.5021716062
H        1.9946863551   -1.7152494599   -2.3784970112
H       -0.6438448963   -1.9296140058   -3.3728832710
H       -1.6522099234    0.8135983272   -0.3627846170
H       -1.2625162513    2.1742577755   -2.5542830221
C       -1.0463519486   -0.9307885039   -1.4052829766
H       -1.4399966999   -1.5845649807   -0.6235130015
13   
From optimize.out: Frame 14 / 35, Energy=    -286.8808383662
C        1.4727295785    0.3229060866   -2.4986320210
C        1.1725536442   -1.0006039926   -2.4668514638
C       -0.1934392159   -1.5184013930   -2.4535623667
C       -1.1923654681    0.4076039469   -1.2678124264
C       -0.6042187078    1.3797294375   -2.1931847018
N        0.5912664657    1.3798471006   -2.6757266246
H        2.5200882559    0.6206434724   -2.5257250674
H        2.0042448035   -1.7064382830   -2.4222895306
H       -0.6240851066   -2.0301240188   -3.3125029748
H       -1.7122889669    0.8095231831   -0.3975871931
H       -1.2294470042    2.2284464582   -2.4898426289
C       -1.0421065228   -0.9246551371   -1.4117130114
H       -1.4678859177   -1.5786963383   -0.6462160789
13   
From optimize.out: Frame 15 / 35, Energy=    -286.8855427075
C        1.4742578229    0.3271076788   -2.5126243848
C        1.1732511549   -0.9986548414   -2.4826240393
C       -0.1808396919   -1.5282442441   -2.4340392918
C       -1.2000082311    0.4151738861   -1.2760382780
C       -0.5921898053    1.4018599067   -2.1673711916
N        0.6008172161    1.3928194782   -2.6606073709
H        2.5230962850    0.6186565408   -2.5506313714
H        2.0104322692   -1.7001691243   -2.4740894189
H       -0.6018010847   -2.1238726951   -3.2416499614
H       -1.7761439361    0.8036204268   -0.4360439876
H       -1.2027921212    2.2702075613   -2.4355353144
C       -1.0351640354   -0.9180740772   -1.4182986631
H       -1.4978700043   -1.5706499740   -0.6720928164
13   
From optimize.out: Frame 16 / 35, Energy=    -286.8902066357
C        1.4753117523    0.3321069784   -2.5265828999
C        1.1733745186   -0.9962118282   -2.4982741319
C       -0.1671579851   -1.5392433442   -2.4141644613
C       -1.2084916067    0.4216279709   -1.2850669326
C       -0.5820566805    1.4186495094   -2.1473896618
N        0.6077309372    1.4037465052   -2.6492426533
H        2.5247820912    0.6195330087   -2.5776028882
H        2.0145526547   -1.6930561103   -2.5243564161
H       -0.5706594322   -2.2136613233   -3.1661872240
H       -1.8313392009    0.7997409350   -0.4745614012
H       -1.1716179061    2.3130388750   -2.3727629103
C       -1.0348775703   -0.9130579835   -1.4250845516
H       -1.5345057341   -1.5634326705   -0.7003699574
13   
From optimize.out: Frame 17 / 35, Energy=    -286.8948492558
C        1.4775581965    0.3374522228   -2.5411932917
C        1.1722486528   -0.9930821935   -2.5135426023
C       -0.1547947118   -1.5461395379   -2.3919785790
C       -1.2169110000    0.4279371586   -1.2925091550
C       -0.5690775114    1.4358120711   -2.1230328237
N        0.6165147383    1.4156039391   -2.6359699638
H        2.5275024817    0.6198042453   -2.6077078512
H        2.0145944744   -1.6866451825   -2.5763541298
H       -0.5374849897   -2.2944448083   -3.0818888865
H       -1.8858366930    0.7950592196   -0.5148272173
H       -1.1421113300    2.3481769494   -2.3155470103
C       -1.0358254640   -0.9089922561   -1.4324982823
H       -1.5713310059   -1.5607613051   -0.7345962968
13   
From optimize.out: Frame 18 / 35, Energy=    -286.8994639842
C        1.4803951488    0.3421549149   -2.5572525870
C        1.1713528861   -0.9906288143   -2.5297900683
C       -0.1410418592   -1.5513016061   -2.3680153682
C       -1.2260508622    0.4329808839   -1.3003953027
C       -0.5573689594    1.4507944412   -2.0994042465
N        0.6245450660    1.4266475692   -2.6231760676
H        2.5300526964    0.6204923898   -2.6411998885
H        2.0122808663   -1.6820675693   -2.6270876071
H       -0.4972258676   -2.3668595281   -2.9923051183
H       -1.9359236634    0.7911105098   -0.5561013537
H       -1.1130043762    2.3807187196   -2.2544153247
C       -1.0395135957   -0.9070244489   -1.4403505148
H       -1.6134516420   -1.5572369392   -0.7721526421
13   
From optimize.out: Frame 19 / 35, Energy=    -286.9039623634
C        1.4826695802    0.3474759677   -2.5730469585
C        1.1689356461   -0.9860764774   -2.5446167394
C       -0.1305625026   -1.5560864724   -2.3448667286
C       -1.2333483406    0.4385597535   -1.3054198852
C       -0.5428850171    1.4637473335   -2.0735865869
N        0.6325184605    1.4378459205   -2.6105297836
H        2.5316475649    0.6212258584   -2.6759930969
H        2.0070281798   -1.6754155876   -2.6751876686
H       -0.4564149112   -2.4332843568   -2.8977129807
H       -1.9814609614    0.7877839899   -0.5958220873
H       -1.0837474859    2.4067712679   -2.1981537815
C       -1.0451464432   -0.9049290450   -1.4500377604
H       -1.6541879315   -1.5578376296   -0.8166720320
13   
From optimize.out: Frame 20 / 35, Energy=    -286.9083049884
C        1.4858681680    0.3505902635   -2.5930772053
C        1.1681510149   -0.9838373248   -2.5601803917
C       -0.1173154268   -1.5558036174   -2.3168902848
C       -1.2422073060    0.4418906721   -1.3119302394
C       -0.5308867964    1.4753148599   -2.0475375722
N        0.6402160071    1.4483261006   -2.5986702920
H        2.5329538414    0.6213461056   -2.7184097374
H        1.9997907633   -1.6743854332   -2.7191231346
H       -0.4050107504   -2.4858260919   -2.7996094578
H       -2.0242401830    0.7857948472   -0.6379985423
H       -1.0561797999    2.4312890127   -2.1339582483
C       -1.0537692272   -0.9076500717   -1.4597390727
H       -1.7023244669   -1.5572688001   -0.8645219111
13   
From optimize.out: Frame 21 / 35, Energy=    -286.9122994408
C        1.4850761336    0.3548195026   -2.6101410933
C        1.1650380561   -0.9775066240   -2.5733400517
C       -0.1106515306   -1.5616390717   -2.2956676211
C       -1.2451507473    0.4471329774   -1.3137478969
C       -0.5162341186    1.4836458331   -2.0198131072
N        0.6458511349    1.4585167232   -2.5876460107
H        2.5304800109    0.6208603418   -2.7563001477
H        1.9927965729   -1.6659175610   -2.7574063106
H       -0.3605302773   -2.5389501418   -2.6993657528
H       -2.0577711999    0.7833772951   -0.6739519742
H       -1.0291385328    2.4485723306   -2.0795386981
C       -1.0601237280   -0.9068601992   -1.4737546703
H       -1.7445959359   -1.5562708836   -0.9209727550
13   
From optimize.out: Frame 22 / 35, Energy=    -286.9159186483
C        1.4859842151    0.3565491114   -2.6335663309
C        1.1645166385   -0.9735731512   -2.5865250777
C       -0.1005655370   -1.5599185472   -2.2638677604
C       -1.2519101366    0.4510056095   -1.3169861503
C       -0.5033078685    1.4896793943   -1.9913545349
N        0.6542782910    1.4687762959   -2.5763404241
H        2.5275566004    0.6200565817   -2.8079527655
H        1.9843694297   -1.6646078469   -2.7903193340
H       -0.3053538237   -2.5734985806   -2.5970895272
H       -2.0934998928    0.7858006381   -0.7158625640
H       -1.0010459637    2.4642108456   -2.0136926093
C       -1.0726318866   -0.9132363913   -1.4859231814
H       -1.7933442276   -1.5614634369   -0.9821658298
13   
From optimize.out: Frame 23 / 35, Energy=    -286.9189157220
C        1.4805337055    0.3573538807   -2.6522049786
C        1.1640313321   -0.9697897708   -2.5966462034
C       -0.0925411613   -1.5664720845   -2.2388839693
C       -1.2529210244    0.4556212864   -1.3211505543
C       -0.4934555521    1.4940972212   -1.9611562389
N        0.6591752530    1.4775200338   -2.5635653568
H        2.5174653401    0.6173256900   -2.8574516565
H        1.9796884630   -1.6590297441   -2.8190706592
H       -0.2543058032   -2.6099248769   -2.4941394223
H       -2.1184193871    0.7850453651   -0.7528264921
H       -0.9767306383    2.4764812801   -1.9513007132
C       -1.0776666758   -0.9166441523   -1.5043408037
H       -1.8398080135   -1.5518036063   -1.0489090414
13   
From optimize.out: Frame 24 / 35, Energy=    -286.9211154305
C        1.4780009120    0.3602241757   -2.6765843624
C        1.1630049283   -0.9641357034   -2.6035421509
C       -0.0833783302   -1.5667538691   -2.1998265789
C       -1.2617357574    0.4621941918   -1.3258007827
C       -0.4803327461    1.4938920575   -1.9324743732
N        0.6747091660    1.4895194399   -2.5467557949
H        2.5077423755    0.6154165685   -2.9214388192
H        1.9698212949   -1.6552873475   -2.8463163470
H       -0.2008835832   -2.6303206367   -2.3903007629
H       -2.1521984592    0.7925871523   -0.7983529679
H       -0.9430787752    2.4848709536   -1.8828366184
C       -1.0957474676   -0.9248698667   -1.5186553832
H       -1.8808777197   -1.5675565935   -1.1187611479
13   
From optimize.out: Frame 25 / 35, Energy=    -286.9225068408
C        1.4700609084    0.3584671087   -2.6851915730
C        1.1667342693   -0.9677552972   -2.6060637379
C       -0.0676746104   -1.5750994743   -2.1675809949
C       -1.2704449635    0.4662589038   -1.3478933513
C       -0.4791079226    1.4969149782   -1.9028092572
N        0.6868604621    1.4967339059   -2.5156036820
H        2.4860584992    0.6108917416   -2.9860846170
H        1.9628703524   -1.6560655869   -2.8860994404
H       -0.1423276310   -2.6528668490   -2.2876544774
H       -2.1761571007    0.7924815540   -0.8448546960
H       -0.9194473336    2.4953680290   -1.8128151642
C       -1.0992997300   -0.9304859527   -1.5406484775
H       -1.9230793616   -1.5450625384   -1.1783466208
13   
From optimize.out: Frame 26 / 35, Energy=    -286.9233351388
C        1.4624371905    0.3656250490   -2.7081695212
C        1.1633153499   -0.9626023115   -2.6055444194
C       -0.0556407862   -1.5792034517   -2.1261123296
C       -1.2863030674    0.4721490199   -1.3714127838
C       -0.4670624158    1.4951538451   -1.8764264870
N        0.7150722974    1.5091912974   -2.4815148799
H        2.4654702652    0.6071215447   -3.0594761442
H        1.9503815155   -1.6488514258   -2.9119835564
H       -0.0966030671   -2.6646793917   -2.1839515440
H       -2.2074350870    0.7961532498   -0.8952835565
H       -0.8797022719    2.4998470871   -1.7418028054
C       -1.1190949059   -0.9366983652   -1.5612117603
H       -1.9497891791   -1.5634256246   -1.2387563020
13   
From optimize.out: Frame 27 / 35, Energy=    -286.9238236102
C        1.4599491406    0.3678474042   -2.7070653491
C        1.1667567466   -0.9663576005   -2.5996734694
C       -0.0383573847   -1.5806751507   -2.0901539443
C       -1.3059723630    0.4753443662   -1.4121640511
C       -0.4637295638    1.4957857122   -1.8549245229
N        0.7437199445    1.5110844812   -2.4298226029
H        2.4401060217    0.6054491946   -3.1219446130
H        1.9349134926   -1.6498514126   -2.9546391894
H       -0.0595088821   -2.6680045801   -2.1157279041
H       -2.2325607358    0.7987747264   -0.9456123809
H       -0.8579940376    2.5031310386   -1.6933031490
C       -1.1284857508   -0.9402552271   -1.5767736519
H       -1.9637907901   -1.5624924298   -1.2598412615
13   
From optimize.out: Frame 28 / 35, Energy=    -286.9240405461
C        1.4484545882    0.3745349656   -2.7214384531
C        1.1584940385   -0.9658441752   -2.6106038951
C       -0.0366955326   -1.5825663113   -2.0855783407
C       -1.3168815734    0.4744378043   -1.4478856104
C       -0.4603501242    1.4953653957   -1.8417349328
N        0.7638745471    1.5093547974   -2.3953828215
H        2.4253956264    0.6032968858   -3.1507548271
H        1.9362483160   -1.6445475400   -2.9536053471
H       -0.0459033266   -2.6703385651   -2.0714875085
H       -2.2408379186    0.7949695451   -0.9731582544
H       -0.8410442752    2.5035294860   -1.6595716057
C       -1.1330757179   -0.9411817399   -1.5931336144
H       -1.9626328098   -1.5612300256   -1.2573108787
13   
From optimize.out: Frame 29 / 35, Energy=    -286.9241191555
C        1.4534364117    0.3766970378   -2.7140168778
C        1.1624490388   -0.9654332125   -2.5997306749
C       -0.0314031263   -1.5825067378   -2.0754891296
C       -1.3177572482    0.4746594075   -1.4456368086
C       -0.4568721531    1.4928710525   -1.8343998928
N        0.7665699254    1.5053593699   -2.3908800195
H        2.4244556593    0.6051871792   -3.1576232409
H        1.9315863270   -1.6444262539   -2.9605877319
H       -0.0520790339   -2.6697915362   -2.0952484545
H       -2.2468427530    0.7978447817   -0.9823152169
H       -0.8453697839    2.5014405946   -1.6736009845
C       -1.1339023152   -0.9399461045   -1.5862344865
H       -1.9592251106   -1.5621750557   -1.2458825711
13   
From optimize.out: Frame 30 / 35, Energy=    -286.9241893702
C        1.4554206305    0.3754624185   -2.7107217544
C        1.1620656809   -0.9654667264   -2.6043091396
C       -0.0343806538   -1.5788931109   -2.0799305261
C       -1.3202948728    0.4757688397   -1.4479617806
C       -0.4615726907    1.4930016253   -1.8418438252
N        0.7682981600    1.5045804309   -2.3889065105
H        2.4283762601    0.6035699624   -3.1503838439
H        1.9308715811   -1.6460289925   -2.9625846829
H       -0.0555424095   -2.6663638671   -2.1019093672
H       -2.2488255473    0.8011293905   -0.9850822726
H       -0.8470299292    2.5014791171   -1.6730586635
C       -1.1313004266   -0.9420143169   -1.5818859567
H       -1.9510399447   -1.5664442481   -1.2330677664
13   
From optimize.out: Frame 31 / 35, Energy=    -286.9242491760
C        1.4517283495    0.3764087142   -2.7151770738
C        1.1606982294   -0.9660822376   -2.6076195628
C       -0.0354022087   -1.5790657747   -2.0852889247
C       -1.3180818452    0.4767185799   -1.4455545119
C       -0.4631975426    1.4930473069   -1.8411080769
N        0.7653103437    1.5052040261   -2.3953581766
H        2.4297135960    0.6016448488   -3.1454913298
H        1.9342286839   -1.6466241686   -2.9553838776
H       -0.0557536332   -2.6664070346   -2.1042604476
H       -2.2495216428    0.8007305007   -0.9878995567
H       -0.8451798687    2.5022704274   -1.6683501227
C       -1.1289356811   -0.9431041761   -1.5795835452
H       -1.9505609421   -1.5649604898   -1.2305708833
13   
From optimize.out: Frame 32 / 35, Energy=    -286.9243041917
C        1.4489433693    0.3799830001   -2.7168223212
C        1.1594975635   -0.9662335984   -2.6064625141
C       -0.0346032253   -1.5804902797   -2.0833240677
C       -1.3183324520    0.4784892719   -1.4504265464
C       -0.4630560681    1.4919328713   -1.8364023460
N        0.7692588745    1.5055743159   -2.3948858447
H        2.4263338809    0.6017838085   -3.1513838567
H        1.9327824458   -1.6454117229   -2.9568925262
H       -0.0553777754   -2.6680140787   -2.1001205128
H       -2.2567790483    0.7994397212   -1.0050709443
H       -0.8383146174    2.5022121136   -1.6564909283
C       -1.1264547927   -0.9448568095   -1.5770336562
H       -1.9488523168   -1.5646280908   -1.2263300251
13   
From optimize.out: Frame 33 / 35, Energy=    -286.9243233105
C        1.4488132192    0.3804879274   -2.7170153434
C        1.1594118622   -0.9675390278   -2.6062207762
C       -0.0336106758   -1.5807352112   -2.0839519971
C       -1.3199897843    0.4791413513   -1.4530966515
C       -0.4635685662    1.4928998236   -1.8345708206
N        0.7702781415    1.5048918594   -2.3960501161
H        2.4266857371    0.6014300387   -3.1512907640
H        1.9327001542   -1.6456426827   -2.9587537716
H       -0.0546012081   -2.6683799971   -2.1024008078
H       -2.2614209244    0.7994042102   -1.0133215735
H       -0.8361037280    2.5033645041   -1.6513532365
C       -1.1268553569   -0.9446105527   -1.5745708143
H       -1.9466930326   -1.5649317207   -1.2190494172
13   
From optimize.out: Frame 34 / 35, Energy=    -286.9243294795
C        1.4494331831    0.3806894184   -2.7168294507
C        1.1593167907   -0.9682358470   -2.6054813941
C       -0.0332088097   -1.5802836008   -2.0805725352
C       -1.3207696408    0.4793017422   -1.4564447184
C       -0.4619871125    1.4927697592   -1.8311645172
N        0.7716317964    1.5045607609   -2.3943039532
H        2.4251401020    0.6031397087   -3.1551421829
H        1.9306860043   -1.6460864278   -2.9629435305
H       -0.0530230564   -2.6681637680   -2.0969615728
H       -2.2636154381    0.7996986247   -1.0196176208
H       -0.8347095568    2.5026576339   -1.6469646678
C       -1.1272311442   -0.9443856238   -1.5751724856
H       -1.9466172800   -1.5658818579   -1.2200474602
