13   
Frame  77 IRC: Energy =  -286.8569120000 ; +14.0443 kcal/mol
C        1.2039720164    0.2988561196    0.4111389332
C        0.7074356071   -1.0165138806   -0.2532961550
C       -0.5269338513   -0.7899512826   -1.0198508376
C       -1.0612228188    0.2169047831    0.0115853723
C       -0.4167170718    1.5389401423   -0.3820499402
N        0.8524837932    1.5634622788   -0.2012095832
H        2.1726988475    0.2383464798    0.8949915062
H        1.3744464320   -1.8696690294   -0.3109750619
H       -1.1205769421   -1.5698313715   -1.4818856868
H       -2.1247070827    0.2169787065    0.2496167177
H       -0.9377284752    2.3473959658   -0.8899981645
C        0.0090361063   -0.3821618245    0.9885979691
H       -0.1321865605   -0.7927570875    1.9833349308
