13   
From qcopt_rct.out: Frame 3 / 3, Energy=    -286.8584671167
C        1.5754785653    0.4456378027   -0.0864065337
C        0.8223283915   -0.8151126325    0.1169043780
C       -0.5184346897   -0.9679999234   -0.5827410394
C       -1.1197088540    0.3163730023   -0.0359153085
C       -0.3701531584    1.5790024873   -0.2391948709
N        0.9609384316    1.6142423936   -0.2595241318
H        2.6636733083    0.4391202389   -0.0978608632
H        1.4056143291   -1.7249866416    0.2489551345
H       -0.9199163278   -1.7438934080   -1.2196390896
H       -2.2065761233    0.3796194190   -0.0333785087
H       -0.9038662590    2.5172603176   -0.3783017375
C       -0.5020008311   -0.7459385163    0.8590849691
H       -0.8873767824   -1.2933245392    1.7080176017
13   
From qcopt_prd.out: Frame 2 / 2, Energy=    -286.8383308172
C        1.2022433504    0.2878293331    0.3826941638
C        0.6319579184   -1.1043015847   -0.1506574462
C       -0.6179332009   -0.9075432039   -0.8724848232
C       -1.0787920851    0.1774088512    0.0982984374
C       -0.4488969787    1.4616735398   -0.4277265339
N        0.8289203037    1.4935584836   -0.3133379118
H        2.2047770843    0.2371175100    0.7951764712
H        1.3124957837   -1.9490589782   -0.1902368809
H       -0.9096615787   -1.1113211611   -1.9001057638
H       -2.1277515227    0.2118753785    0.4006643542
H       -0.9940590257    2.2286103487   -0.9756957538
C        0.0450322536   -0.3542960290    1.0595635809
H       -0.0483323022   -0.6715524880    2.0938481063
