13   
From optimize.out: Frame 1 / 20, Energy=    -286.6335618128
C        1.4409046990    0.0629981869   -0.5651728416
C        0.5581024731   -1.0998890994   -0.9627523535
C       -0.9203716989   -0.6618279646   -1.8719528887
C       -1.3285943967   -0.1110408063   -0.3868352949
C       -0.7608343953    0.7255995047   -1.3986268366
N        0.8419694141    1.2030975964   -1.3684242769
H        2.4761512958    0.1586498407   -0.0491117674
H        0.5807283859   -2.1956017844   -1.0287875738
H       -1.3496487149   -0.4236350327   -2.9133844742
H       -2.3868023414   -0.0087028593   -0.1698006820
H       -1.2505366251    1.6645343021   -1.6158442856
C        0.1309913711   -0.2585945210    0.2737761833
H        0.4092771381   -0.5369309427    1.2726827931
13   
From optimize.out: Frame 2 / 20, Energy=    -286.6725900763
C        1.3983528936    0.0735970718   -0.5814558577
C        0.5492817036   -1.1047252244   -0.9614636271
C       -0.8933700308   -0.6575160746   -1.8517646150
C       -1.3070591570   -0.0986534652   -0.3792006698
C       -0.7432424010    0.7537553006   -1.4068904049
N        0.8178480693    1.2180567403   -1.3715252517
H        2.4168162647    0.1671552186   -0.0900227104
H        0.5955355030   -2.1959787123   -1.0190603265
H       -1.3062021274   -0.4444500617   -2.8821572224
H       -2.3607442676    0.0090695352   -0.1445587749
H       -1.2407559085    1.6845175368   -1.6525732502
C        0.1190752843   -0.2902682444    0.2796211609
H        0.3958007786   -0.5959032002    1.2768172511
13   
From optimize.out: Frame 3 / 20, Energy=    -286.7063446920
C        1.3547182980    0.0832274083   -0.5975813149
C        0.5360639867   -1.1087311723   -0.9649390183
C       -0.8657721947   -0.6538723421   -1.8265698812
C       -1.2846851366   -0.0869989566   -0.3749826495
C       -0.7221119716    0.7825641559   -1.4101881505
N        0.7867105994    1.2210329649   -1.3674710521
H        2.3603335090    0.1749687397   -0.1274537005
H        0.6074552922   -2.1961130968   -1.0158517686
H       -1.2583455071   -0.4671524641   -2.8506769084
H       -2.3333012575    0.0260997205   -0.1223033551
H       -1.2305174436    1.7012488527   -1.6819418619
C        0.1070543823   -0.3168114924    0.2810609633
H        0.3837340482   -0.6408058973    1.2746643988
13   
From optimize.out: Frame 4 / 20, Energy=    -286.7336144193
C        1.3179941709    0.0930016932   -0.6088898591
C        0.5244822459   -1.1135915948   -0.9701456917
C       -0.8440429612   -0.6500779773   -1.7999330200
C       -1.2671778454   -0.0710674244   -0.3730098816
C       -0.7042277459    0.8128393050   -1.4139394764
N        0.7567681047    1.2239945063   -1.3599994452
H        2.3189950882    0.1823387346   -0.1567688753
H        0.6223794699   -2.1974696587   -1.0168268132
H       -1.2187392661   -0.4947803888   -2.8240184500
H       -2.3107636898    0.0481374733   -0.1033452292
H       -1.2267790080    1.7156621452   -1.7133961845
C        0.0988959519   -0.3437965042    0.2834302543
H        0.3735520897   -0.6865338891    1.2726083732
13   
From optimize.out: Frame 5 / 20, Energy=    -286.7553915296
C        1.2882241257    0.1021765658   -0.6152564497
C        0.5149465808   -1.1185146057   -0.9772167597
C       -0.8285193888   -0.6452208705   -1.7734104606
C       -1.2538044689   -0.0520520999   -0.3729994145
C       -0.6891536673    0.8439976547   -1.4177583018
N        0.7340632969    1.2296274647   -1.3502821783
H        2.2884229314    0.1871107428   -0.1786817511
H        0.6414562193   -2.1984256215   -1.0218170346
H       -1.1884748699   -0.5283699986   -2.8002233241
H       -2.2920364677    0.0725610552   -0.0853307113
H       -1.2291146762    1.7269179757   -1.7457547578
C        0.0933111471   -0.3702292292    0.2847719553
H        0.3620158425   -0.7309226130    1.2697248896
13   
From optimize.out: Frame 6 / 20, Energy=    -286.7725565336
C        1.2650417435    0.1103440174   -0.6167307086
C        0.5076225697   -1.1224786945   -0.9863130597
C       -0.8189657507   -0.6387276630   -1.7486810398
C       -1.2434294473   -0.0310890944   -0.3743654641
C       -0.6765532224    0.8747418097   -1.4220139966
N        0.7210004754    1.2384345254   -1.3387512198
H        2.2663346594    0.1879467235   -0.1932025546
H        0.6651727211   -2.1974633443   -1.0311791120
H       -1.1690394684   -0.5674782149   -2.7781590608
H       -2.2756825319    0.0972996372   -0.0667065334
H       -1.2363312237    1.7341164183   -1.7785258107
C        0.0889872717   -0.3949844545    0.2842899026
H        0.3471788083   -0.7720052454    1.2661043586
13   
From optimize.out: Frame 7 / 20, Energy=    -286.7859727053
C        1.2470595377    0.1174107704   -0.6139969784
C        0.5020831178   -1.1249046248   -0.9971089929
C       -0.8142053557   -0.6303564394   -1.7274431768
C       -1.2351364564   -0.0096664695   -0.3765854690
C       -0.6651976330    0.9034002586   -1.4265493957
N        0.7160959047    1.2492840870   -1.3256214030
H        2.2505934919    0.1847987484   -0.2015486686
H        0.6934178077   -2.1935326807   -1.0449120051
H       -1.1610722698   -0.6101729617   -2.7572935355
H       -2.2606736081    0.1205463417   -0.0470502179
H       -1.2451514332    1.7368214414   -1.8108950797
C        0.0849740419   -0.4172094767    0.2822264437
H        0.3285494594   -0.8077625742    1.2625441801
13   
From optimize.out: Frame 8 / 20, Energy=    -286.7963492287
C        1.2330202888    0.1234059347   -0.6077392200
C        0.4979627995   -1.1256185742   -1.0086870341
C       -0.8127395250   -0.6202640436   -1.7109875778
C       -1.2284677631    0.0108598537   -0.3793201946
C       -0.6541756780    0.9285016159   -1.4312257850
N        0.7164426431    1.2606464403   -1.3110866536
H        2.2396294982    0.1783021508   -0.2052893031
H        0.7257563355   -2.1860823116   -1.0626342449
H       -1.1647859521   -0.6536536906   -2.7370880995
H       -2.2466348625    0.1413192196   -0.0269689226
H       -1.2525163446    1.7351714792   -1.8426170589
C        0.0809958307   -0.4367133662    0.2794075493
H        0.3068493344   -0.8372182875    1.2600022461
13   
From optimize.out: Frame 9 / 20, Energy=    -286.8042865322
C        1.2221590596    0.1284426974   -0.5988451588
C        0.4948376439   -1.1246412754   -1.0199068044
C       -0.8128408435   -0.6089772367   -1.6997233912
C       -1.2232432092    0.0291450058   -0.3823594485
C       -0.6433713189    0.9491077859   -1.4359036816
N        0.7198916292    1.2715843699   -1.2953850058
H        2.2323721027    0.1692278301   -0.2059509724
H        0.7608205951   -2.1749963314   -1.0836495277
H       -1.1793549860   -0.6954768531   -2.7167738382
H       -2.2336950991    0.1589942982   -0.0076713867
H       -1.2566304103    1.7299216085   -1.8734832845
C        0.0770495739   -0.4535068825    0.2764983452
H        0.2833418675   -0.8601685963    1.2589198558
13   
From optimize.out: Frame 10 / 20, Energy=    -286.8103270711
C        1.2139813750    0.1326613321   -0.5884909210
C        0.4923110833   -1.1223623134   -1.0297173631
C       -0.8129505145   -0.5969681072   -1.6933356142
C       -1.2194194222    0.0441528523   -0.3855972466
C       -0.6332641519    0.9650081618   -1.4404730402
N        0.7249001758    1.2816758189   -1.2789273772
H        2.2279323707    0.1584919642   -0.2048027717
H        0.7965874052   -2.1608497920   -1.1069618939
H       -1.2024972035   -0.7343754964   -2.6957136481
H       -2.2222491467    0.1733988732    0.0095504531
H       -1.2568595383    1.7226055150   -1.9028516603
C        0.0732687009   -0.4677237469    0.2738636415
H        0.2595954711   -0.8770586412    1.2592231431
13   
From optimize.out: Frame 11 / 20, Energy=    -286.8149372486
C        1.2079761813    0.1362152799   -0.5778426919
C        0.4900462078   -1.1194616144   -1.0375117454
C       -0.8120464526   -0.5843982195   -1.6911170279
C       -1.2168479236    0.0555129725   -0.3889650302
C       -0.6243183688    0.9766512616   -1.4449437532
N        0.7303208596    1.2907395014   -1.2623771722
H        2.2253757635    0.1471166322   -0.2026529309
H        0.8309693734   -2.1447443062   -1.1316246595
H       -1.2309119386   -0.7704506948   -2.6734913375
H       -2.2125742084    0.1847546785    0.0238108938
H       -1.2534634281    1.7151313040   -1.9297063092
C        0.0697824066   -0.4796293653    0.2716225553
H        0.2370281327   -0.8887810094    1.2605649098
13   
From optimize.out: Frame 12 / 20, Energy=    -286.8184698472
C        1.2035925730    0.1392437309   -0.5676182171
C        0.4878009266   -1.1165784139   -1.0432151332
C       -0.8097781815   -0.5712516731   -1.6922668165
C       -1.2152051092    0.0635877480   -0.3923666772
C       -0.6167094183    0.9847897911   -1.4495639267
N        0.7355414853    1.2986804683   -1.2464882553
H        2.2238570466    0.1359667579   -0.1997821526
H        0.8625269266   -2.1277488259   -1.1570954696
H       -1.2614177531   -0.8045746135   -2.6497540308
H       -2.2046776198    0.1935973026    0.0347558041
H       -1.2473334559    1.7090657569   -1.9531759807
C        0.0666060713   -0.4896550202    0.2697656140
H        0.2165331130   -0.8964665889    1.2625709429
13   
From optimize.out: Frame 13 / 20, Energy=    -286.8211529735
C        1.2002231333    0.1418285289   -0.5580833368
C        0.4853434727   -1.1141528098   -1.0470843989
C       -0.8062248971   -0.5575618443   -1.6960661427
C       -1.2140814389    0.0690737743   -0.3956764012
C       -0.6102992316    0.9901546221   -1.4546518590
N        0.7403174897    1.3054072734   -1.2318098638
H        2.2226778280    0.1255197347   -0.1963103071
H        0.8907501495   -2.1105010902   -1.1832445564
H       -1.2916036804   -0.8376575242   -2.6241884118
H       -2.1983905225    0.2006298359    0.0423347579
H       -1.2394756288    1.7053160189   -1.9727509704
C        0.0636167564   -0.4983081065    0.2682645822
H        0.1984831743   -0.9010919929    1.2650326092
13   
From optimize.out: Frame 14 / 20, Energy=    -286.8231045643
C        1.1973443319    0.1439942388   -0.5491676694
C        0.4825527647   -1.1124552874   -1.0494241893
C       -0.8017143923   -0.5436367119   -1.7019159019
C       -1.2130974421    0.0726982755   -0.3987750487
C       -0.6048302610    0.9932742368   -1.4605330243
N        0.7446346480    1.3107914661   -1.2186878841
H        2.2213564843    0.1159216240   -0.1922307948
H        0.9160906157   -2.0931081810   -1.2102281418
H       -1.3202670576   -0.8701970672   -2.5964679427
H       -2.1935538232    0.2067470481    0.0464402178
H       -1.2307377007    1.7042368408   -1.9882633124
C        0.0606306782   -0.5061627471    0.2671149084
H        0.1829277589   -0.9034473149    1.2679044844
13   
From optimize.out: Frame 15 / 20, Energy=    -286.8243599657
C        1.1944726294    0.1456944762   -0.5407644888
C        0.4792944821   -1.1117478038   -1.0503986008
C       -0.7965425145   -0.5301273045   -1.7092764569
C       -1.2119137041    0.0749196697   -0.4015740285
C       -0.5999686635    0.9944824847   -1.4673964450
N        0.7485088795    1.3146204849   -1.2072820819
H        2.2194941542    0.1069507466   -0.1876772851
H        0.9396756902   -2.0752085692   -1.2382821215
H       -1.3471826119   -0.9019710587   -2.5663606427
H       -2.1901315041    0.2127210683    0.0466284755
H       -1.2216636527    1.7058545231   -1.9996208876
C        0.0574633757   -0.5137152171    0.2663855859
H        0.1698300446   -0.9038170798    1.2713846786
13   
From optimize.out: Frame 16 / 20, Energy=    -286.8249104884
C        1.1912470878    0.1467962742   -0.5326759686
C        0.4755677858   -1.1125589858   -1.0498465104
C       -0.7910943433   -0.5183505547   -1.7175800486
C       -1.2101713311    0.0760455684   -0.4038350242
C       -0.5955683192    0.9936654215   -1.4755373493
N        0.7519486958    1.3163307705   -1.1979308203
H        2.2167886740    0.0981641023   -0.1826144545
H        0.9636080964   -2.0559790607   -1.2676461974
H       -1.3735338377   -0.9313759725   -2.5339480356
H       -2.1884475130    0.2192004445    0.0416229496
H       -1.2125437264    1.7101395487   -2.0065901892
C        0.0540671528   -0.5214317010    0.2663454404
H        0.1594681830   -0.9019894350    1.2760019093
13   
From optimize.out: Frame 17 / 20, Energy=    -286.8249582875
C        1.1899215846    0.1464952879   -0.5310392050
C        0.4738697060   -1.1143447182   -1.0487733122
C       -0.7895440727   -0.5172544568   -1.7194299556
C       -1.2090547949    0.0759099592   -0.4036510775
C       -0.5950645722    0.9925918417   -1.4780773668
N        0.7521821925    1.3152651666   -1.1964198611
H        2.2154161156    0.0950076153   -0.1818104241
H        0.9712329123   -2.0509474138   -1.2749329550
H       -1.3804396097   -0.9356820526   -2.5267287283
H       -2.1894865330    0.2202698236    0.0363184848
H       -1.2104841051    1.7131317726   -2.0054965484
C        0.0534432929   -0.5228533313    0.2672154308
H        0.1593444885   -0.8989330739    1.2785912197
13   
From optimize.out: Frame 18 / 20, Energy=    -286.8249722748
C        1.1894025162    0.1461942942   -0.5308989035
C        0.4728402221   -1.1159612584   -1.0481964418
C       -0.7894747429   -0.5178013818   -1.7193406708
C       -1.2081122600    0.0762530009   -0.4030224561
C       -0.5953864715    0.9921779762   -1.4791798957
N        0.7522313771    1.3145127816   -1.1968430003
H        2.2147363625    0.0936715924   -0.1814921091
H        0.9740158726   -2.0500916424   -1.2760740482
H       -1.3825757538   -0.9358234562   -2.5250743100
H       -2.1911015996    0.2194771104    0.0314681123
H       -1.2101851619    1.7158245449   -2.0029914474
C        0.0537458841   -0.5225926171    0.2678067594
H        0.1612003601   -0.8971845243    1.2796041125
13   
From optimize.out: Frame 19 / 20, Energy=    -286.8249747065
C        1.1892201892    0.1462594278   -0.5311368864
C        0.4724636592   -1.1164501990   -1.0478769926
C       -0.7898059705   -0.5183773122   -1.7187552823
C       -1.2078580567    0.0760833401   -0.4026746856
C       -0.5951909807    0.9918511181   -1.4792071672
N        0.7523218947    1.3139566047   -1.1975620373
H        2.2146415368    0.0937956472   -0.1821505763
H        0.9745949210   -2.0502195467   -1.2748470899
H       -1.3832757394   -0.9342221000   -2.5252595634
H       -2.1923440387    0.2186497547    0.0286538130
H       -1.2099761412    1.7165923328   -2.0014358475
C        0.0541382299   -0.5223117370    0.2681541711
H        0.1624071013   -0.8969509100    1.2798638456
