13   
From optimize.out: Frame 1 / 2, Energy=    -286.8516345402
C        1.5189874062    0.3441588063   -0.2644252994
C        0.6216192586   -0.8944701024   -0.0647318007
C       -0.3948716278   -0.5208172525   -1.1474916430
C       -1.0026577606    0.5083552418    0.8086557238
C       -0.5872412418    0.8947648274   -0.6197781154
N        0.8524697132    1.3865955360   -0.5761305058
H        2.5997530457    0.3578848315   -0.1336547130
H        1.1020933072   -1.8728860788   -0.0775504506
H       -1.2194040131   -1.1747379185   -1.4269638383
H       -1.7237658678    1.0470917705    1.4134949852
H       -1.2335871503    1.5920977564   -1.1505755036
C       -0.2723898965   -0.5664110507    1.1480186723
H       -0.2610051735   -1.1016263668    2.0911324881
13   
From optimize.out: Frame 1 / 2, Energy=    -286.9243467336
C        1.4629484605    0.2996723053   -0.7918750363
C        1.0986505075   -0.9937212313   -0.4650932294
C       -0.0970096582   -1.4396112442    0.2028982483
C       -1.2273061996    0.7713911062    0.5557735790
C       -0.3287818779    1.6580387231   -0.0053682909
N        0.8719902540    1.5028071833   -0.6125140210
H        2.4253875089    0.3886458143   -1.3006651847
H        1.8071156735   -1.7677382196   -0.7502039795
H       -0.1790523155   -2.5131541553    0.3611347128
H       -2.1259249268    1.2166819695    0.9760708924
H       -0.6306107870    2.7066734920    0.0393456134
C       -1.1223441956   -0.6625062657    0.6524318172
H       -1.9550624436   -1.1671794777    1.1380648789
