13   
Frame   0 IRC: Energy =  -286.8734820000 ; +0.0000 kcal/mol
C        1.5186035912    0.3483820933   -0.2803863778
C        0.6272379572   -0.8913170642   -0.0668529239
C       -0.4069351032   -0.5259029090   -1.1367515478
C       -0.9951853727    0.5116319481    0.8184219776
C       -0.5953048619    0.8937365348   -0.6164984204
N        0.8415205726    1.3867291132   -0.5898735946
H        2.6000202719    0.3685205246   -0.1642559744
H        1.1114359062   -1.8671197374   -0.0812541990
H       -1.2281252759   -1.1849417420   -1.4112369089
H       -1.7150591909    1.0458316081    1.4276161304
H       -1.2491066810    1.5856413769   -1.1432615548
C       -0.2592928466   -0.5639162483    1.1532175467
H       -0.2498089669   -1.1072754984    2.0911158473
13   
Frame   1 IRC: Energy =  -286.8720348651 ; +0.9081 kcal/mol
C        1.5201180007    0.3637556748   -0.2868007494
C        0.6383205541   -0.8833892125   -0.0580471101
C       -0.4005254155   -0.5358801202   -1.1267103134
C       -0.9770935353    0.5304300215    0.8274123973
C       -0.5924871992    0.8933586946   -0.6163880084
N        0.8368621645    1.3940379982   -0.6104063866
H        2.6029727541    0.3970861434   -0.1904117716
H        1.1398445480   -1.8504061747   -0.0573231234
H       -1.2172650839   -1.2123675574   -1.3723390066
H       -1.6541807206    1.0983006967    1.4562331164
H       -1.2622870315    1.5692360887   -1.1440726733
C       -0.2754093587   -0.5726021441    1.1463394357
H       -0.3588696767   -1.1915601090    2.0325141934
13   
Frame   2 IRC: Energy =  -286.8680098540 ; +3.4338 kcal/mol
C        1.5196587006    0.3750442163   -0.2977623386
C        0.6466531132   -0.8734719996   -0.0473644517
C       -0.4020771622   -0.5485775730   -1.1072903256
C       -0.9539779047    0.5597546864    0.8496255713
C       -0.5924278673    0.8926830822   -0.6129729318
N        0.8302857691    1.3967439092   -0.6371397893
H        2.6021388820    0.4235429950   -0.2056216963
H        1.1585671312   -1.8342195979   -0.0298163151
H       -1.1958310614   -1.2492508747   -1.3622543311
H       -1.5985274109    1.1485824736    1.4969000919
H       -1.2734674686    1.5511795897   -1.1480798639
C       -0.2829998294   -0.5698517658    1.1472073778
H       -0.4579948915   -1.2721591415    1.9545690023
13   
Frame   3 IRC: Energy =  -286.8597076221 ; +8.6436 kcal/mol
C        1.5286821471    0.3798680666   -0.3101964984
C        0.6685833153   -0.8666662259   -0.0367623812
C       -0.4421482224   -0.5717293323   -1.0273936837
C       -0.9422854740    0.6018152578    0.8757052109
C       -0.5946815486    0.8965788201   -0.6000146984
N        0.8273351697    1.3919250515   -0.6544045850
H        2.6124991127    0.4461058628   -0.2048439410
H        1.1813826441   -1.8311642204   -0.0231615399
H       -1.1777587335   -1.2871288281   -1.3799441229
H       -1.5773254524    1.1895782254    1.5364488943
H       -1.2717133083    1.5361760955   -1.1628652643
C       -0.2977291642   -0.5629227745    1.1267359571
H       -0.5148404855   -1.3224359985    1.8606966526
13   
Frame   4 IRC: Energy =  -286.8457134129 ; +17.4251 kcal/mol (Transition State)
C        1.5400351997    0.3828115194   -0.3191142943
C        0.7142249104   -0.8591679707   -0.0402242570
C       -0.4943071460   -0.6033929576   -0.8937997287
C       -0.9398276272    0.6449189538    0.8790100558
C       -0.5967369390    0.9058579109   -0.5897458995
N        0.8242264460    1.3889431226   -0.6584509289
H        2.6200998651    0.4556061556   -0.2007915251
H        1.1952022372   -1.8361534141   -0.0245804271
H       -1.1561418665   -1.2953055631   -1.3895265088
H       -1.5727559511    1.2105226813    1.5525526896
H       -1.2705777267    1.5306285814   -1.1731518700
C       -0.3318884348   -0.5882812946    1.0502040375
H       -0.5315529670   -1.3369877249    1.8076186563
13   
Frame   5 IRC: Energy =  -286.8483721395 ; +15.7567 kcal/mol
C        1.5484332514    0.3859781298   -0.3284579315
C        0.7564487550   -0.8533877059   -0.0541362716
C       -0.5342853852   -0.6344018932   -0.7574672048
C       -0.9330551369    0.6901398572    0.8780704669
C       -0.5971230404    0.9155125851   -0.5825465928
N        0.8209055782    1.3897525972   -0.6591065759
H        2.6251030308    0.4629037826   -0.1987399009
H        1.2061494788   -1.8400012991   -0.0261415904
H       -1.1328958981   -1.2946494130   -1.3817501112
H       -1.5717084909    1.2253750819    1.5608831448
H       -1.2698404913    1.5259849744   -1.1822500725
C       -0.3760077688   -0.6262690619    0.9649775514
H       -0.5421238826   -1.3469376351    1.7666650886
13   
Frame   6 IRC: Energy =  -286.8558813875 ; +11.0446 kcal/mol
C        1.5536773518    0.3901766681   -0.3419601289
C        0.7879339800   -0.8521673262   -0.0661467551
C       -0.5630949626   -0.6559861560   -0.6550503064
C       -0.9040288510    0.7317855136    0.8997472160
C       -0.5932674316    0.9219114855   -0.5733812833
N        0.8179541493    1.3922208396   -0.6653194658
H        2.6298642185    0.4778606007   -0.2053905932
H        1.2302104275   -1.8426239565   -0.0276716435
H       -1.1051631367   -1.3002421828   -1.3436560728
H       -1.5717966356    1.2487369670    1.5710585406
H       -1.2665638490    1.5126395494   -1.1945439717
C       -0.4405852497   -0.6479703320    0.9047630204
H       -0.5751400109   -1.3763416702    1.6975514437
13   
Frame   7 IRC: Energy =  -286.8579012437 ; +9.7771 kcal/mol
C        1.5573000164    0.4001387370   -0.3471147449
C        0.8002873189   -0.8463030217   -0.0480845284
C       -0.5541073958   -0.6542507467   -0.6361926596
C       -0.8915420406    0.7432701585    0.9149863170
C       -0.5872914774    0.9234459107   -0.5655782637
N        0.8184554847    1.3952285214   -0.6833634004
H        2.6364699163    0.4977644369   -0.2445867994
H        1.2647555544   -1.8268917601   -0.0123398359
H       -1.0994235046   -1.3257933829   -1.2919676530
H       -1.5390899585    1.2882068891    1.5858185584
H       -1.2711888609    1.4970158733   -1.1902648902
C       -0.4589285135   -0.6531182756    0.9018960109
H       -0.6756965394   -1.4387133400    1.6167918891
13   
Frame   8 IRC: Energy =  -286.8588241169 ; +9.1980 kcal/mol
C        1.5479226416    0.4094995521   -0.3357234749
C        0.8030405353   -0.8439277154   -0.0471678800
C       -0.5464453875   -0.6649418819   -0.6456444406
C       -0.9441801078    0.7189723376    0.8964302297
C       -0.6009432997    0.9132818018   -0.5716601263
N        0.8014770607    1.4002630935   -0.6699171645
H        2.6274153033    0.5138602532   -0.2401543840
H        1.2780064574   -1.8187337810    0.0029637853
H       -1.0816537979   -1.3396195058   -1.3055310465
H       -1.4156504791    1.3501375171    1.6375637991
H       -1.2791248723    1.4832990252   -1.2065096684
C       -0.4867506038   -0.6637142476    0.8899342072
H       -0.7031134502   -1.4583764490    1.5954161638
13   
Frame   9 IRC: Energy =  -286.8599247654 ; +8.5073 kcal/mol
C        1.5319170348    0.4205734396   -0.3184157184
C        0.7975742961   -0.8419908524   -0.0478288832
C       -0.5482537584   -0.6759099883   -0.6566678931
C       -0.9815808301    0.7039201080    0.8839434102
C       -0.6186890482    0.9010420278   -0.5808462473
N        0.7782288787    1.4049480209   -0.6562413061
H        2.6086202355    0.5365884485   -0.2082823865
H        1.2820789332   -1.8115412812    0.0118327536
H       -1.0657400397   -1.3541317577   -1.3267358822
H       -1.2568659868    1.3995454881    1.6686606355
H       -1.2931234900    1.4652421933   -1.2254092008
C       -0.5133710648   -0.6748510137    0.8762204715
H       -0.7207951603   -1.4734348328    1.5797702468
13   
Frame  10 IRC: Energy =  -286.8602899828 ; +8.2781 kcal/mol
C        1.5152450427    0.4300405913   -0.3036001304
C        0.7887463348   -0.8402348371   -0.0442995949
C       -0.5546056981   -0.6840028825   -0.6647507921
C       -0.9884024823    0.7012255347    0.8811547136
C       -0.6338281134    0.8912473481   -0.5887312104
N        0.7580574143    1.4079357313   -0.6535347267
H        2.5882137149    0.5589942981   -0.1737010435
H        1.2819486716   -1.8047242421    0.0203290160
H       -1.0495819725   -1.3662377475   -1.3482248869
H       -1.1136940818    1.4267744795    1.6795823481
H       -1.3131652223    1.4486816884   -1.2342217103
C       -0.5346846560   -0.6847571093    0.8643429646
H       -0.7442489518   -1.4849428529    1.5656550528
