13   
From qcopt_rct.out: Frame 3 / 3, Energy=    -286.8516365108
C        1.5196817895    0.3440739078   -0.2649461972
C        0.6224748319   -0.8939218341   -0.0647136388
C       -0.3953703744   -0.5206731519   -1.1472882853
C       -1.0023286462    0.5091940545    0.8086810719
C       -0.5861713701    0.8954094682   -0.6198733192
N        0.8530895815    1.3865087220   -0.5766345126
H        2.6004622616    0.3578332345   -0.1344527725
H        1.1022922546   -1.8726626952   -0.0767669264
H       -1.2213134024   -1.1742516431   -1.4232003148
H       -1.7271370039    1.0439991456    1.4125314193
H       -1.2321738086    1.5929355166   -1.1508801546
C       -0.2722119408   -0.5659090966    1.1475628476
H       -0.2612941731   -1.1025356283    2.0899807822
13   
From qcopt_prd.out: Frame 2 / 2, Energy=    -286.9243475524
C        1.4634472714    0.2995955640   -0.7911101075
C        1.0988594007   -0.9937694383   -0.4647324744
C       -0.0964799067   -1.4397118758    0.2036773431
C       -1.2276448266    0.7715759993    0.5554921329
C       -0.3287949944    1.6583377556   -0.0057823792
N        0.8723779113    1.5030058167   -0.6122492020
H        2.4251608358    0.3887676499   -1.3013513074
H        1.8065893638   -1.7681087751   -0.7508283408
H       -0.1794325389   -2.5134016516    0.3602415170
H       -2.1269252218    1.2161704784    0.9752348445
H       -0.6304264634    2.7071094593    0.0395261345
C       -1.1218160504   -0.6624035273    0.6534049182
H       -1.9549147806   -1.1671674553    1.1384769211
