13   
From optimize.out: Frame 57 / 58, Energy=    -286.8437898165
C        1.4070808082   -0.4162452932    0.0529122145
C        2.2317435209   -0.2207509882   -1.1331213223
C        1.4143781494    0.3811150641   -2.0436267956
C       -2.3477322796   -0.0971190147    2.0273722337
C        0.1291349307    0.5258904076   -1.3697993504
N        0.1499578241    0.0397250646   -0.1132064142
H        1.7161211031   -0.8721595207    0.9884469298
H        3.2710950001   -0.5028847600   -1.2404701366
H        1.6441254435    0.6941357225   -3.0536857455
H       -1.5377142575   -0.0215008136    1.3217514557
H       -0.7750181459    0.9659849263   -1.7788524247
C       -3.2521962725   -0.1957325051    2.8203417849
H       -4.0509758245   -0.2804582896    3.5219375708
