13   
From qcfsm.out: Frame 71 / 71, Energy=       0.0000000000
C        1.9395303481    0.3167227627   -0.2716197758
C        1.2152925273   -0.8374705696   -0.3068296899
C       -0.1278669726   -0.4550911071   -0.7390766687
C       -1.3235009169   -0.0658773992    1.1143548047
C        0.0232787705    1.0100529264   -0.9808529138
N        1.2011261364    1.4617146808   -0.6843144720
H        2.9912481893    0.4260683257   -0.0215236962
H        1.6196899290   -1.8277380630   -0.1291657662
H       -0.5439899912   -1.0237637548   -1.5834924251
H       -0.6080677909    0.6532956800    1.5064618306
H       -0.7617349168    1.6392261426   -1.3857299544
C       -2.4146828689   -0.4024809309    1.6268640366
H       -3.3563868433   -0.8677113598    1.8533007529
