13   
Frame  76 IRC: Energy =  -286.8575840000 ; +11.8675 kcal/mol
C        1.1290306652    0.2003782706    0.4389300968
C        1.0271923875   -0.8095820377   -0.7114818623
C       -0.4106860712   -1.0260874292   -0.4658438804
C       -1.1190603794    0.3115164347   -0.0600503210
C       -0.3880110979    1.5620825015   -0.4196008795
N        0.8558930538    1.5497692232   -0.1109381476
H        2.0070494255    0.1809600550    1.0836372157
H        1.7391646816   -1.6044900340   -0.8984335998
H       -1.0227048808   -1.8670319411   -0.7725431337
H       -2.2005938284    0.2669609232    0.0116614918
H       -0.8431084263    2.4113473388   -0.9266710514
C       -0.2473240822   -0.3909763680    0.9295544276
H       -0.5268414475   -0.7848469369    1.9017796439
13   
From qcts2.out: Frame 3 / 3, Energy=    -286.8277536404
C        1.3671138301    0.2915646631    0.2562294130
C        1.0306215280   -0.8469022956   -0.5697244840
C       -0.3971554733   -1.0280557654   -0.3809151903
C       -1.1309559008    0.3430063874    0.0255971610
C       -0.3915608927    1.5466501493   -0.3801693408
N        0.8740001741    1.5430637700   -0.1562367706
H        2.3212675781    0.3393828639    0.7774155469
H        1.7130595547   -1.6632018612   -0.7776282900
H       -0.9928724149   -1.8263145952   -0.8142595419
H       -2.2177655313    0.3343249773   -0.0354882777
H       -0.8648030414    2.3857034573   -0.8861017238
C       -0.4558275421   -0.4897744040    1.0334147233
H       -0.9008636479   -0.9548860878    1.9111796187
13   
Frame   0 IRC: Energy =  -286.8764961209 ; +0.0000 kcal/mol
C        1.6806220490    0.4064389654   -0.1596845201
C        1.1335791003   -0.8278867552   -0.2626938280
C       -0.3067691375   -1.0694230393   -0.0886928063
C       -1.1622985611    0.3248777942    0.0410068280
C       -0.3382750323    1.5316444022   -0.1462829207
N        0.9507733155    1.5951832289   -0.1467868137
H        2.7561286000    0.5415924400   -0.2233136675
H        1.7630345620   -1.6821874092   -0.4978504089
H       -0.7381328327   -1.9104105128   -0.6337059307
H       -2.1665022145    0.3852148665   -0.3820983531
H       -0.8793018298    2.4560415369   -0.3584331341
C       -0.9654562855   -0.6261488044    1.1361771961
H       -1.7274017331   -1.1249367133    1.7223583585
13   
Frame   0 IRC: Energy =  -286.8764950000 ; +0.0000 kcal/mol
C        1.6764250729    0.3747709935   -0.2334392591
C        1.1023141276   -0.8497570868   -0.3105020546
C       -0.3341608134   -1.0624972866   -0.0765829487
C       -1.1528042251    0.3488409284    0.1003397990
C       -0.3194233388    1.5367597442   -0.1509141628
N        0.9692597077    1.5764632583   -0.2118673813
H        2.7519111526    0.4884160752   -0.3297736923
H        1.7067755099   -1.7181395061   -0.5597740924
H       -0.8092292255   -1.8924266244   -0.6022800680
H       -2.1797468596    0.4256591709   -0.2616368981
H       -0.8537414331    2.4642254150   -0.3654143113
C       -0.9122004099   -0.6050758373    1.1836887942
H       -1.6453792659   -1.0872392438    1.8181562759
13   
From qcts2.out: Frame 3 / 3, Energy=    -286.8561843435
C        1.5992435138    0.3891374047   -0.1740460005
C        0.9432099013   -0.8439965047   -0.1758706133
C       -0.5058459575   -0.9913445712   -0.4032809738
C       -1.1192468006    0.3455320194    0.0854966315
C       -0.3451703902    1.5645374723   -0.2761559942
N        0.9503535110    1.5837541910   -0.3612214507
H        2.6669293084    0.4397894493    0.0132384253
H        1.5256448803   -1.7541654733   -0.0539166813
H       -0.9965411772   -1.7333228739   -1.0259088169
H       -2.2029032288    0.4316674699    0.0005642690
H       -0.8899257434    2.4717209768   -0.5367960399
C       -0.6318629585   -0.6956749169    1.0150230651
H       -0.9938848585   -1.2076346429    1.8928741791
13   
Frame  71 IRC: Energy =  -286.8793650000 ; -1.8010 kcal/mol
C        1.5779469684    0.4187592301   -0.1637269914
C        0.8150283981   -0.8257173397    0.0989648667
C       -0.5607284438   -0.9747999929   -0.5291910636
C       -1.1156385907    0.3342952092    0.0132378223
C       -0.3603678040    1.5755786040   -0.2795527659
N        0.9707663675    1.5897774397   -0.3545177004
H        2.6647564820    0.3997771833   -0.1973506900
H        1.3917362961   -1.7400176595    0.2254794554
H       -1.0068983984   -1.7610263481   -1.1204013096
H       -2.1990878065    0.4174228136    0.0709183894
H       -0.8880146071    2.5101957788   -0.4561617909
C       -0.4691753240   -0.7121072545    0.9065177435
H       -0.8203235374   -1.2321376639    1.7857840344
