13   
Frame   0 IRC: Energy =  -286.7511897150 ; +0.0000 kcal/mol
C        1.3752161196    0.4386103007   -1.9041452740
C        0.2748442867   -1.4882525680    1.7288941625
C       -0.9539552648   -1.0441857678    1.5041220839
C       -1.3826196781   -0.0963319347    0.4703555377
C       -0.6012169490    0.5078903446   -0.4450687737
N        0.8055330511    0.2779938395   -0.5068268692
H        1.4594598234   -0.1641715423   -2.7917705009
H        0.7178028860   -2.1719860884    2.4426277962
H       -1.7597170328   -1.4130133103    2.1519418867
H       -2.4434791337    0.1392201146    0.4454802217
H       -1.0321981955    1.2011777785   -1.1731124212
C        1.5717216917    1.4342570075   -1.1258932655
H        1.9686083956    2.3787918263   -0.7966045839
13   
From qcts2.out: Frame 4 / 4, Energy=    -286.7391920298
C        1.4062806294    0.1833987214   -1.4265338516
C        0.2977407986   -1.3390045594    1.1655080232
C       -0.9871515544   -1.0392284599    1.3637000837
C       -1.5903977586   -0.0613291125    0.4655901108
C       -0.7485300629    0.5991679739   -0.3586620396
N        0.6382571440    0.3122993752   -0.2238271790
H        1.5107161168   -0.6298491147   -2.1358860266
H        1.0438120471   -1.8796449871    1.7367496605
H       -1.5767312762   -1.4490794233    2.1878202514
H       -2.6539191304    0.1536280817    0.4792451170
H       -1.0488338878    1.3667136627   -1.0675914364
C        1.6728320659    1.4021005956   -1.1182617280
H        2.0521406796    2.3999691935   -1.0321011062
13   
Frame 121 IRC: Energy =  -286.8952002735 ; -90.3681 kcal/mol
C        1.5566951844    0.2295030540   -0.8595926314
C        0.2200800137   -1.1162758618    0.7237054912
C       -1.0485258141   -1.0682352368    1.2511152320
C       -1.6967302477    0.0778924506    0.6933545607
C       -0.8013313182    0.6892429444   -0.1539085386
N        0.3746595445   -0.0402301527   -0.1379842001
H        2.3386394099   -0.5037196199   -0.6678929320
H        1.0304746364   -1.8130215077    0.8804631373
H       -1.4675523283   -1.7722942163    1.9561652617
H       -2.7051592550    0.4129497668    0.8926463800
H       -0.8954213889    1.5738004108   -0.7646344843
C        1.7786557373    1.2290523353   -1.6903474081
H        1.3155158260    2.1013356334   -2.1230898684
13   
Frame   0 IRC: Energy =  -286.8952366243 ; +0.0000 kcal/mol
C        0.9683724428    0.5027640436   -1.4234286779
C       -1.1135232367   -0.5112183895   -0.5624863437
C       -1.6461675913   -0.8031520969    0.6709417690
C       -0.6948296408   -0.3854688777    1.6533533516
C        0.3842361800    0.1468484056    0.9857085519
N        0.1310098147    0.0713524697   -0.3726949692
H        0.5356705251    0.3161123568   -2.4050507236
H       -1.5015729335   -0.6612208381   -1.5593076784
H       -2.6072594189   -1.2633784466    0.8523186341
H       -0.7930967599   -0.4684747737    2.7268430292
H        1.3064338740    0.5687295286    1.3544570466
C        2.1519877637    1.0747873978   -1.3211720827
H        2.8787389808    1.4123192209   -0.5994819073
13   
From qcts2.out: Frame 4 / 4, Energy=    -286.8359952760
C        1.2076267962    0.8120801738   -1.6816355089
C       -1.2199747155   -0.4923174217   -0.5538801930
C       -1.4264404055   -1.0948071516    0.7093672428
C       -0.6232100535   -0.3773837501    1.6460982020
C        0.0190535092    0.5984753126    0.9199072976
N       -0.4145213501    0.5694230743   -0.4260649567
H        0.6347741315    1.1700098895   -2.5107483223
H       -1.6965260714   -0.7339998728   -1.4956328242
H       -2.1427726353   -1.8770138428    0.9309664136
H       -0.5383328335   -0.5644637078    2.7079337036
H        0.7469333948    1.3343116258    1.2312479331
C        2.2683823995    0.5003980097   -1.1306603500
H        3.0294496906    0.1733820337   -0.4573350636
13   
Frame 172 IRC: Energy =  -286.8706146164 ; +15.4506 kcal/mol
C        2.2155537537    1.1150398049   -1.8750039387
C       -1.2968693862   -0.5889952483   -0.2350131219
C       -2.0872836055   -1.0526002776    0.9010553695
C       -1.3570033200   -0.7231979277    2.0067383978
C       -0.1548477477   -0.0727308738    1.4950690877
N       -0.1435940383   -0.0050470575    0.1478094870
H        1.4522464396    0.7649736032   -1.2011352911
H       -1.5550945514   -0.6768267834   -1.2847778482
H       -3.0464654688   -1.5502498583    0.8511605727
H       -1.5963526014   -0.8953770460    3.0475700357
H        0.6661404346    0.3273561032    2.0807963162
C        3.0729554270    1.5064003995   -2.6339355960
H        3.8306146647    1.8512551619   -3.3003334708
