13   
Frame   0 IRC: Energy =  -286.8602700000 ; +0.0000 kcal/mol
C        1.1589794086    0.1304803584    0.4226177283
C        0.9553820095   -0.9980227466   -0.5804675674
C       -0.4620418026   -1.1026358935   -0.2571907161
C       -1.1011036645    0.3530283047    0.0160240134
C       -0.3133957348    1.4875886170   -0.5301053754
N        0.9466080268    1.4197347000   -0.2859754158
H        2.0590070336    0.1416224907    1.0376818322
H        1.5509601667   -1.3202361628   -1.4286876436
H       -1.1554880756   -1.9102025371   -0.4648202392
H       -2.1819595149    0.3701997332    0.1120341634
H       -0.7368100768    2.2969437411   -1.1219874517
C       -0.2333638937   -0.3043977920    1.0290870642
H       -0.4867738820   -0.5641028131    2.0517896073
13   
From qcts2.out: Frame 4 / 4, Energy=    -286.8438738381
C        1.1539367683    0.1570357881    0.4046694211
C        0.8941989954   -0.9692349787   -0.5897704539
C       -0.5040175243   -1.0156314701   -0.4941168848
C       -1.0885210295    0.2942758132    0.0493381493
C       -0.3639745787    1.4982520023   -0.5020977489
N        0.8996541443    1.4615896558   -0.2906230978
H        2.0972965999    0.1577065598    0.9474539008
H        1.5809855740   -1.6286134427   -1.1003544089
H       -1.1629887050   -1.8263835181   -0.7933047980
H       -2.1653977568    0.3135143494    0.1975884463
H       -0.8334022982    2.2973513379   -1.0718682761
C       -0.1717451210   -0.1580714850    1.1411728921
H       -0.3786728435   -0.6024897013    2.1037988077
13   
Frame  59 IRC: Energy =  -286.8734850000 ; -8.2925 kcal/mol
C        1.1460113781    0.1724902262    0.4345259844
C        0.8038347721   -1.0327776003   -0.4564551188
C       -0.5279478551   -1.0092895015   -0.6459723416
C       -1.0631183828    0.2191852587    0.1190320712
C       -0.3825188890    1.4446309703   -0.5245189690
N        0.8848204453    1.4382170763   -0.3628816863
H        2.1326030269    0.1813594371    0.8936805701
H        1.5247260376   -1.7330428731   -0.8618255674
H       -1.1378730901   -1.6926216701   -1.2261384860
H       -2.1389706337    0.2721304685    0.2844528312
H       -0.8971172888    2.2284210206   -1.0761632120
C       -0.1016683683    0.1140012979    1.3080214241
H       -0.2427811521   -0.6027041105    2.1142425001
13   
Frame  64 IRC: Energy =  -286.8735030000 ; -8.8849 kcal/mol
C        1.1313057399    0.1421300425    0.4813772685
C        0.8226872974   -0.9981175663   -0.5023523275
C       -0.5007680845   -0.9567041943   -0.7421187399
C       -1.0673532594    0.2040250099    0.1023678996
C       -0.3777508977    1.4769089354   -0.4259374702
N        0.8848369478    1.4624368921   -0.2296839344
H        2.1047766271    0.1243014400    0.9675931947
H        1.5571892978   -1.6761527830   -0.9209851724
H       -1.0827382583   -1.5775976645   -1.4135531402
H       -2.1477035724    0.2357297152    0.2398643643
H       -0.8835005457    2.2975228476   -0.9303717150
C       -0.1409036481    0.0160663831    1.3091726063
H       -0.3000776440   -0.7505490577    2.0646271661
13   
From qcts2.out: Frame 4 / 4, Energy=    -286.8475377375
C        1.1722997819    0.2314619880    0.4234871801
C        0.7496865017   -1.0097548267   -0.3627750747
C       -0.5492935903   -0.8794313818   -0.8805066217
C       -1.0742266605    0.1906129619    0.0749795455
C       -0.4215763670    1.4937321563   -0.3917190604
N        0.8529832489    1.5070086776   -0.2304666120
H        2.1498651423    0.1827954822    0.8943296881
H        1.4430258308   -1.8313755913   -0.5196176095
H       -1.0605115782   -1.4506138143   -1.6427081574
H       -2.1406528892    0.2036497210    0.2976581923
H       -0.9436859199    2.2897456886   -0.9183415331
C       -0.0409892156   -0.2400118324    1.1431525371
H       -0.1692608261   -0.7261022465    2.1001800833
13   
Frame   0 IRC: Energy =  -286.8593440000 ; +0.0000 kcal/mol
C        1.2020483640    0.2968718941    0.3973717450
C        0.6518928159   -1.0857946247   -0.1804447208
C       -0.6016286690   -0.8929725633   -0.8934841491
C       -1.0783918419    0.1715732368    0.0909278821
C       -0.4581395169    1.4742866052   -0.4016724722
N        0.8197271425    1.5144425158   -0.2709841290
H        2.2014198242    0.2461062344    0.8153561967
H        1.3416930674   -1.9208643611   -0.2378177434
H       -0.9371846917   -1.1568044435   -1.8916726194
H       -2.1289013505    0.1926387672    0.3862140645
H       -1.0035715481    2.2511441997   -0.9334929961
C        0.0453266776   -0.3687595079    1.0492656845
H       -0.0542902741   -0.7218679533    2.0704332572
