13   
Frame   0 IRC: Energy =  -286.9461694368 ; +0.0000 kcal/mol
C        1.4113439058    0.9279868202   -0.1214774014
C        0.3411742622   -1.3623408443   -0.3958544430
C       -0.9494972114   -1.1076391625   -0.0315613460
C       -1.4951265086    0.1572162177    0.3914505218
C       -0.8444186020    1.3723864335    0.5197230755
N        0.4343506237    1.7645751341    0.3054423976
H        2.3686987309    1.4397646451   -0.2315093693
H        0.5835995520   -2.3813001994   -0.6890341638
H       -1.6480873279   -1.9408130715   -0.0590465328
H       -2.5523210172    0.1640669047    0.6442555290
H       -1.4730296765    2.1962520457    0.8613507670
C        1.4303804095   -0.4194756091   -0.4370979885
H        2.3929328596   -0.8106793138   -0.7566410465
13   
From qcts2.out: Frame 17 / 17, Energy=    -286.7508321472
C        1.2588893236    0.2987521232   -0.1438413932
C        0.4675911316   -0.9415347481    0.3963546351
C       -0.9042701909   -1.0557482597    0.2343207173
C       -1.6326364192    0.1697293140    0.1497646859
C       -0.8428956760    1.2358681399    0.4908480791
N        0.4733021937    0.9770220997    0.8486565093
H        2.3015498833    0.2049329398    0.1989111892
H        1.0814028675   -1.7053263335    0.8625903169
H       -1.3886390408   -2.0244871240    0.3144321237
H       -2.6825167219    0.2485918484   -0.1031729573
H       -1.1732650379    2.2698753936    0.5504002921
C        1.2368455588    0.5646945651   -1.5677083260
H        1.7878986105   -0.2091073585   -2.1230271194
13   
Frame 109 IRC: Energy =  -286.8971762266 ; +30.7437 kcal/mol
C        1.6395100777    0.3451609971   -0.3100028192
C       -0.2211531196   -1.2755939720   -0.2424843522
C       -1.5563380943   -1.2410835257    0.0825366577
C       -1.8651038496    0.1019731226    0.4667816471
C       -0.7088529465    0.8399336434    0.3637695704
N        0.3005825054   -0.0014953951   -0.0717043778
H        2.2470402770   -0.4986071579   -0.6470935697
H        0.4093454472   -2.0851422859   -0.5799704535
H       -2.2374661139   -2.0797650654    0.0501634321
H       -2.8276077884    0.4791284675    0.7833983190
H       -0.5058838266    1.8822464275    0.5566785674
C        2.1766395392    1.5419295679   -0.1651284403
H        3.1492878923    1.9913151761   -0.2869441810
13   
Frame  98 IRC: Energy =  -286.8971313098 ; -7.3308 kcal/mol
C        1.5081986894    0.4997781939   -0.6158081128
C       -0.3144812735   -1.1118623273   -0.0729550392
C       -1.5462577553   -1.0165651985    0.5318442963
C       -1.7440569659    0.3528922193    0.8960605933
C       -0.6247857743    1.0457783898    0.5002469973
N        0.2532018843    0.1506950908   -0.0934366051
H        1.7324869037    1.5646597223   -0.5148854201
H        0.2132895599   -1.9553476655   -0.4912325734
H       -2.2330305927   -1.8352831175    0.6961556864
H       -2.6086710770    0.7752292628    1.3885454960
H       -0.3678575231    2.0915646977    0.5847560820
C        2.3756636018   -0.3169773865   -1.1833792941
H        3.3563003226   -0.2445618813   -1.6259121068
13   
From qcts2.out: Frame 3 / 3, Energy=    -286.8545406148
C        1.5274819430    0.6164978298   -0.4609263992
C        0.1637743143   -0.9918618398    0.1782326539
C       -1.2444471552   -1.0214135441    0.2321067793
C       -1.6893703191    0.2843323370    0.5736893981
C       -0.5827810601    1.0915903181    0.7432211409
N        0.5751960187    0.3322982669    0.5771327680
H        2.1856546774    1.4796601691   -0.4011169159
H        0.8071303917   -1.8269028672    0.4304555562
H       -1.8635983016   -1.8980535425    0.0976529761
H       -2.7175190008    0.5939976937    0.7123091589
H       -0.5194719889    2.1565481259    0.9184615217
C        1.3787127891   -0.3675397618   -1.3437596245
H        1.9323579513   -0.6878615021   -2.2219982755
13   
Frame   0 IRC: Energy =  -286.8854490000 ; +0.0000 kcal/mol
C        1.4720425503    0.6961620956   -0.5166035396
C        0.3612049871   -0.9199228795    0.0717408197
C       -1.1344368389   -0.9238956779    0.0123397311
C       -1.5989322835    0.2920952617    0.5090768260
C       -0.5310248466    1.1117025647    0.8714011669
N        0.6994751629    0.4352227725    0.6820187780
H        2.0455484707    1.5959178949   -0.7100002244
H        0.7928738265   -1.7554119623    0.6410109666
H       -1.7355710951   -1.7717143295   -0.2897963327
H       -2.6430871703    0.5669634776    0.6161188383
H       -0.5466287652    2.1296155930    1.2371061637
C        1.2289315657   -0.4781389466   -1.1176450996
H        1.5896044365   -0.9785958644   -2.0067680935
