13   
Frame   0 IRC: Energy =  -286.8854570000 ; +0.0000 kcal/mol
C        1.3829522869    0.7512314606   -0.6641941997
C        0.1074352754   -0.8430692904   -0.5105267812
C       -0.7963937107   -1.0287090628    0.6681743706
C       -1.3849853066    0.1971709708    0.9706061492
C       -0.9270060280    1.1866936444    0.1017052671
N       -0.0484191819    0.6327082552   -0.8618734887
H        1.9619808844    1.6582154776   -0.7976379123
H       -0.1175570398   -1.5030198012   -1.3605321526
H       -1.0076520197   -1.9809611214    1.1370095821
H       -2.1097548465    0.3663705164    1.7601105581
H       -1.1459931618    2.2460310750    0.0992274279
C        1.6047052893   -0.5347131272   -0.3542310014
H        2.4806875595   -1.1479489973   -0.1878378191
13   
From qcts2.out: Frame 3 / 3, Energy=    -286.8545212248
C        1.3767305838    0.7058898767   -0.7544567210
C       -0.0982043174   -0.8991361887   -0.4334623211
C       -1.0386539236   -1.0760855099    0.6018418537
C       -1.4902104265    0.2119690592    0.9976778257
C       -0.8565340846    1.1557264554    0.2147023656
N       -0.0469378557    0.5139312067   -0.7216018800
H        1.8127067642    1.6326072879   -1.1189870254
H        0.0572497299   -1.5950196119   -1.2496647922
H       -1.3935910636   -2.0263332338    0.9773443806
H       -2.2289114773    0.4248013344    1.7600968924
H       -0.8738942262    2.2349418779    0.2762533784
C        1.8882788184   -0.4350999600   -0.2999595480
H        2.8919714789   -0.8481925938   -0.2497844086
13   
Frame  90 IRC: Energy =  -286.8971465980 ; -7.3353 kcal/mol
C        1.4676687242    0.5452840102   -0.6727566149
C       -0.2250796822   -1.1343038639    0.0537042683
C       -1.4650669209   -1.0693263399    0.6457468959
C       -1.7706319697    0.3120927109    0.8583157717
C       -0.7057250004    1.0424611563    0.3870540444
N        0.2428849616    0.1588279203   -0.1066472551
H        1.6090285550    1.6288999340   -0.6873860143
H        0.3695567280   -1.9747181366   -0.2703478386
H       -2.0866687747   -1.9163412881    0.9008662691
H       -2.6675105475    0.7175185915    1.3051629390
H       -0.5316783418    2.1081201048    0.3556225955
C        2.3971812730   -0.2589237913   -1.1532965085
H        3.3660409954   -0.1595910082   -1.6160385524
13   
Frame 109 IRC: Energy =  -286.8971762266 ; +30.7437 kcal/mol
C        1.6395100777    0.3451609971   -0.3100028192
C       -0.2211531196   -1.2755939720   -0.2424843522
C       -1.5563380943   -1.2410835257    0.0825366577
C       -1.8651038496    0.1019731226    0.4667816471
C       -0.7088529465    0.8399336434    0.3637695704
N        0.3005825054   -0.0014953951   -0.0717043778
H        2.2470402770   -0.4986071579   -0.6470935697
H        0.4093454472   -2.0851422859   -0.5799704535
H       -2.2374661139   -2.0797650654    0.0501634321
H       -2.8276077884    0.4791284675    0.7833983190
H       -0.5058838266    1.8822464275    0.5566785674
C        2.1766395392    1.5419295679   -0.1651284403
H        3.1492878923    1.9913151761   -0.2869441810
13   
From qcts2.out: Frame 17 / 17, Energy=    -286.7508321472
C        1.2601772865    0.2961934617   -0.1521897588
C        0.4688790945   -0.9440934096    0.3880062695
C       -0.9029822280   -1.0583069212    0.2259723517
C       -1.6313484563    0.1671706525    0.1414163203
C       -0.8416077131    1.2333094784    0.4824997135
N        0.4745901566    0.9744634382    0.8403081437
H        2.3028378462    0.2023742783    0.1905628236
H        1.0826908304   -1.7078849950    0.8542419513
H       -1.3873510779   -2.0270457855    0.3060837581
H       -2.6812287590    0.2460331869   -0.1115213229
H       -1.1719770750    2.2673167321    0.5420519265
C        1.2381335217    0.5621359036   -1.5760566916
H        1.7891865734   -0.2116660200   -2.1313754850
13   
Frame   0 IRC: Energy =  -286.9461694368 ; +0.0000 kcal/mol
C        1.4113439058    0.9279868202   -0.1214774014
C        0.3411742622   -1.3623408443   -0.3958544430
C       -0.9494972114   -1.1076391625   -0.0315613460
C       -1.4951265086    0.1572162177    0.3914505218
C       -0.8444186020    1.3723864335    0.5197230755
N        0.4343506237    1.7645751341    0.3054423976
H        2.3686987309    1.4397646451   -0.2315093693
H        0.5835995520   -2.3813001994   -0.6890341638
H       -1.6480873279   -1.9408130715   -0.0590465328
H       -2.5523210172    0.1640669047    0.6442555290
H       -1.4730296765    2.1962520457    0.8613507670
C        1.4303804095   -0.4194756091   -0.4370979885
H        2.3929328596   -0.8106793138   -0.7566410465
13   
Frame   0 IRC: Energy =  -286.9462072305 ; +0.0000 kcal/mol
C        1.5927980874    0.3373116769   -0.4654699911
C        1.1949131981   -0.9668224123   -0.2263173827
C       -0.1051399606   -1.4450283889    0.1707205757
C       -1.3349305159    0.7401140056    0.2899355595
C       -0.3584636629    1.6532756805   -0.0677010263
N        0.9462353619    1.5264004704   -0.4113584472
H        2.6376800823    0.4527151366   -0.7579597885
H        1.9653668003   -1.7222425638   -0.3579084832
H       -0.1963842008   -2.5211024919    0.3002092218
H       -2.3104915964    1.1633962571    0.5151080940
H       -0.6853991510    2.6941718407   -0.0817611041
C       -1.2210106484   -0.6924064405    0.3985552598
H       -2.1251737936   -1.2197827700    0.6939475121
13   
From qcts2.out: Frame 3 / 3, Energy=    -286.8682123023
C        1.2313758266    0.2142611559    0.1524039155
C        1.1145373974   -1.0777610104   -0.5897552320
C       -0.0604773198   -1.5186791363   -0.1330565254
C       -1.2272753680    0.7500133680    0.2783094972
C       -0.4047181732    1.6027459984   -0.5114561074
N        0.8849198766    1.3476749081   -0.5507779952
H        1.9214632669    0.3218558753    0.9923024256
H        1.7803665816   -1.4663203270   -1.3544214470
H       -0.5645965413   -2.4627085528   -0.3461203301
H       -2.1905405040    1.1014333507    0.6400695514
H       -0.7881093658    2.4723078462   -1.0409395662
C       -0.6386931659   -0.4585541492    0.7604872407
H       -1.0582525105   -0.8262693268    1.7029545730
13   
Frame  91 IRC: Energy =  -286.8969190000 ; +30.9289 kcal/mol
C        1.0353053643    0.1299159643    0.2728727481
C        1.0742140721   -1.1269410687   -0.5962416588
C       -0.1385695619   -1.5480539586   -0.2105008476
C       -1.2523622987    0.7510074688    0.2288016915
C       -0.4260712275    1.6744010642   -0.4344993837
N        0.8724925707    1.3843821686   -0.4545798531
H        1.8216842195    0.2198245387    1.0323659012
H        1.8223344834   -1.4967304249   -1.2894938152
H       -0.7551023046   -2.4053252598   -0.4656483834
H       -2.3296604158    0.8258562125    0.3287178283
H       -0.7818515711    2.5708697019   -0.9379095071
C       -0.3937234784   -0.3597332523    0.7356339378
H       -0.5486898519   -0.6194731548    1.7904813419
13   
Frame   0 IRC: Energy =  -286.8969880000 ; +0.0000 kcal/mol
C        1.0042836072    0.2216049221    0.3323543011
C        1.1840799552   -1.0722923328   -0.4629398147
C       -0.0157230430   -1.5629760734   -0.1229705744
C       -1.3127637842    0.6651087789    0.1016386642
C       -0.5104712838    1.6121197592   -0.5576667805
N        0.8035442258    1.4226712253   -0.4715778154
H        1.7326939383    0.4028295862    1.1311373369
H        1.9962824410   -1.4190895109   -1.0936373288
H       -0.5522783367   -2.4767347369   -0.3612575711
H       -2.3971702726    0.6587032431    0.1180217809
H       -0.8933306861    2.4501726519   -1.1360278187
C       -0.4152361736   -0.3466265136    0.7332454093
H       -0.6239105870   -0.5554909989    1.7896802110
13   
From qcts2.out: Frame 3 / 3, Energy=    -286.8564679450
C        0.9107206687    0.1922934025    0.3293812588
C        1.1637796388   -1.1076232596   -0.3979573521
C        0.0537588061   -1.8200138024   -0.2923696531
C       -1.3280836740    0.8342353890    0.2742104657
C       -0.4973969192    1.6248470955   -0.6136444202
N        0.7649693406    1.3058478632   -0.6182957968
H        1.6606050134    0.4533884960    1.0887588344
H        2.0761744307   -1.3367641725   -0.9493216251
H       -0.3377349091   -2.7748592223   -0.6281578083
H       -2.3960574505    0.9505537921    0.4133133440
H       -0.8639296606    2.4290290904   -1.2489757444
C       -0.4967635316   -0.0956225796    0.8701381071
H       -0.7100417531   -0.6553120920    1.7729203900
13   
Frame  89 IRC: Energy =  -286.8749135540 ; +13.8519 kcal/mol
C        0.6584220780    0.0777698540    0.2511410181
C        1.0460861996   -1.2369535382   -0.3988312637
C        0.3970550009   -2.3731616926   -0.2826461068
C       -1.3661811095    1.1610038917    0.4016955702
C       -0.4896729477    1.7544615871   -0.6190688323
N        0.6539600123    1.1670801461   -0.7426094754
H        1.4465895568    0.3354815449    0.9805137156
H        1.9552232016   -1.1818073304   -1.0087060604
H        0.4980078700   -3.3894257558   -0.6396122695
H       -2.3630778551    1.5019224495    0.6553723658
H       -0.7460058983    2.6137571234   -1.2358842761
C       -0.6843668732    0.1263520946    0.9310647733
H       -1.0060392354   -0.5564803743    1.7075708411
