13   
Frame 109 IRC: Energy =  -286.8971762266 ; +30.7437 kcal/mol
C        1.6395100777    0.3451609971   -0.3100028192
C       -0.2211531196   -1.2755939720   -0.2424843522
C       -1.5563380943   -1.2410835257    0.0825366577
C       -1.8651038496    0.1019731226    0.4667816471
C       -0.7088529465    0.8399336434    0.3637695704
N        0.3005825054   -0.0014953951   -0.0717043778
H        2.2470402770   -0.4986071579   -0.6470935697
H        0.4093454472   -2.0851422859   -0.5799704535
H       -2.2374661139   -2.0797650654    0.0501634321
H       -2.8276077884    0.4791284675    0.7833983190
H       -0.5058838266    1.8822464275    0.5566785674
C        2.1766395392    1.5419295679   -0.1651284403
H        3.1492878923    1.9913151761   -0.2869441810
13   
From qcts2.out: Frame 17 / 17, Energy=    -286.7508321472
C        1.2588893236    0.2987521232   -0.1438413932
C        0.4675911316   -0.9415347481    0.3963546351
C       -0.9042701909   -1.0557482597    0.2343207173
C       -1.6326364192    0.1697293140    0.1497646859
C       -0.8428956760    1.2358681399    0.4908480791
N        0.4733021937    0.9770220997    0.8486565093
H        2.3015498833    0.2049329398    0.1989111892
H        1.0814028675   -1.7053263335    0.8625903169
H       -1.3886390408   -2.0244871240    0.3144321237
H       -2.6825167219    0.2485918484   -0.1031729573
H       -1.1732650379    2.2698753936    0.5504002921
C        1.2368455588    0.5646945651   -1.5677083260
H        1.7878986105   -0.2091073585   -2.1230271194
13   
Frame   0 IRC: Energy =  -286.9461694368 ; +0.0000 kcal/mol
C        1.4113439058    0.9279868202   -0.1214774014
C        0.3411742622   -1.3623408443   -0.3958544430
C       -0.9494972114   -1.1076391625   -0.0315613460
C       -1.4951265086    0.1572162177    0.3914505218
C       -0.8444186020    1.3723864335    0.5197230755
N        0.4343506237    1.7645751341    0.3054423976
H        2.3686987309    1.4397646451   -0.2315093693
H        0.5835995520   -2.3813001994   -0.6890341638
H       -1.6480873279   -1.9408130715   -0.0590465328
H       -2.5523210172    0.1640669047    0.6442555290
H       -1.4730296765    2.1962520457    0.8613507670
C        1.4303804095   -0.4194756091   -0.4370979885
H        2.3929328596   -0.8106793138   -0.7566410465
13   
Frame   0 IRC: Energy =  -286.9462030877 ; +0.0000 kcal/mol
C        1.4590727568    0.8320084931   -0.2138011157
C        0.2495064295   -1.4019177979   -0.3183714406
C       -1.0125901323   -1.0486075364    0.0633252545
C       -1.4714426484    0.2703698080    0.4188854643
C       -0.7482559236    1.4503701221    0.4515044901
N        0.5451336609    1.7504915536    0.1825522642
H        2.4413332823    1.2773898842   -0.3788855924
H        0.4234767287   -2.4495068089   -0.5534868658
H       -1.7588205901   -1.8387162351    0.1066704063
H       -2.5188970166    0.3563580719    0.6965546020
H       -1.3182673966    2.3304766482    0.7532831342
C        1.3904792442   -0.5308395084   -0.4453777349
H        2.3192716050   -0.9978766949   -0.7628528659
13   
From qcts2.out: Frame 3 / 3, Energy=    -286.8343100478
C        1.3719436764    0.1673485149    0.2934192663
C        0.4830535171   -1.0466054607   -0.0817588098
C       -0.9421356918   -0.9828063532    0.3265233209
C       -1.5253823204    0.2520937070    0.4050403958
C       -0.7248474755    1.3875192505    0.1294994651
N        0.6276356574    1.3438634864   -0.0501085152
H        2.2783272381    0.2035167217    0.8900294873
H        0.9694321922   -2.0223439636   -0.0183033866
H       -1.4732624941   -1.8987010564    0.5650071969
H       -2.5774516516    0.3786488797    0.6422634366
H       -1.1683339442    2.3646047960   -0.0414740147
C        1.1001281186   -0.1321214816   -1.0765998445
H        1.5458324944   -0.0372350944   -2.0523912582
13   
Frame  82 IRC: Energy =  -286.8501300000 ; +60.2868 kcal/mol
C        1.3903493882    0.0814682049    0.3758648818
C        0.4737582429   -1.0392664178   -0.0968126950
C       -0.9551984259   -0.9984758147    0.2927672981
C       -1.5301987174    0.2624326007    0.4077373892
C       -0.7285230016    1.3646594294    0.1545045873
N        0.6562574432    1.2314302915   -0.2016231060
H        2.3337166659    0.1346278017    0.9008095744
H        0.9394358433   -2.0196644457   -0.1997041251
H       -1.5059102586   -1.9166459800    0.4655425598
H       -2.5738416823    0.3934902827    0.6790054032
H       -1.0857532281    2.3879526240    0.1850166851
C        1.0172947116    0.0483537604   -1.0168851368
H        1.5686130190    0.0696376630   -1.9462233158
