13   
Frame   0 IRC: Energy =  -286.8854490000 ; +0.0000 kcal/mol
C        1.4720425503    0.6961620956   -0.5166035396
C        0.3612049871   -0.9199228795    0.0717408197
C       -1.1344368389   -0.9238956779    0.0123397311
C       -1.5989322835    0.2920952617    0.5090768260
C       -0.5310248466    1.1117025647    0.8714011669
N        0.6994751629    0.4352227725    0.6820187780
H        2.0455484707    1.5959178949   -0.7100002244
H        0.7928738265   -1.7554119623    0.6410109666
H       -1.7355710951   -1.7717143295   -0.2897963327
H       -2.6430871703    0.5669634776    0.6161188383
H       -0.5466287652    2.1296155930    1.2371061637
C        1.2289315657   -0.4781389466   -1.1176450996
H        1.5896044365   -0.9785958644   -2.0067680935
13   
From qcts2.out: Frame 3 / 3, Energy=    -286.8545406148
C        1.5310880769    0.6348600080   -0.4636541483
C        0.1673804482   -0.9734996616    0.1755049048
C       -1.2408410213   -1.0030513659    0.2293790302
C       -1.6857641852    0.3026945152    0.5709616490
C       -0.5791749262    1.1099524963    0.7404933918
N        0.5788021526    0.3506604451    0.5744050189
H        2.1892608113    1.4980223473   -0.4038446650
H        0.8107365256   -1.8085406890    0.4277278071
H       -1.8599921677   -1.8796913643    0.0949252270
H       -2.7139128669    0.6123598719    0.7095814098
H       -0.5158658550    2.1749103041    0.9157337726
C        1.3823189230   -0.3491775836   -1.3464873736
H        1.9359640852   -0.6694993239   -2.2247260246
13   
Frame  98 IRC: Energy =  -286.8971313098 ; -7.3308 kcal/mol
C        1.5081986894    0.4997781939   -0.6158081128
C       -0.3144812735   -1.1118623273   -0.0729550392
C       -1.5462577553   -1.0165651985    0.5318442963
C       -1.7440569659    0.3528922193    0.8960605933
C       -0.6247857743    1.0457783898    0.5002469973
N        0.2532018843    0.1506950908   -0.0934366051
H        1.7324869037    1.5646597223   -0.5148854201
H        0.2132895599   -1.9553476655   -0.4912325734
H       -2.2330305927   -1.8352831175    0.6961556864
H       -2.6086710770    0.7752292628    1.3885454960
H       -0.3678575231    2.0915646977    0.5847560820
C        2.3756636018   -0.3169773865   -1.1833792941
H        3.3563003226   -0.2445618813   -1.6259121068
13   
Frame 109 IRC: Energy =  -286.8971762266 ; +30.7437 kcal/mol
C        1.6395100777    0.3451609971   -0.3100028192
C       -0.2211531196   -1.2755939720   -0.2424843522
C       -1.5563380943   -1.2410835257    0.0825366577
C       -1.8651038496    0.1019731226    0.4667816471
C       -0.7088529465    0.8399336434    0.3637695704
N        0.3005825054   -0.0014953951   -0.0717043778
H        2.2470402770   -0.4986071579   -0.6470935697
H        0.4093454472   -2.0851422859   -0.5799704535
H       -2.2374661139   -2.0797650654    0.0501634321
H       -2.8276077884    0.4791284675    0.7833983190
H       -0.5058838266    1.8822464275    0.5566785674
C        2.1766395392    1.5419295679   -0.1651284403
H        3.1492878923    1.9913151761   -0.2869441810
13   
From qcts2.out: Frame 17 / 17, Energy=    -286.7508321472
C        1.2601772865    0.2961934617   -0.1521897588
C        0.4688790945   -0.9440934096    0.3880062695
C       -0.9029822280   -1.0583069212    0.2259723517
C       -1.6313484563    0.1671706525    0.1414163203
C       -0.8416077131    1.2333094784    0.4824997135
N        0.4745901566    0.9744634382    0.8403081437
H        2.3028378462    0.2023742783    0.1905628236
H        1.0826908304   -1.7078849950    0.8542419513
H       -1.3873510779   -2.0270457855    0.3060837581
H       -2.6812287590    0.2460331869   -0.1115213229
H       -1.1719770750    2.2673167321    0.5420519265
C        1.2381335217    0.5621359036   -1.5760566916
H        1.7891865734   -0.2116660200   -2.1313754850
13   
Frame   0 IRC: Energy =  -286.9461694368 ; +0.0000 kcal/mol
C        1.4113439058    0.9279868202   -0.1214774014
C        0.3411742622   -1.3623408443   -0.3958544430
C       -0.9494972114   -1.1076391625   -0.0315613460
C       -1.4951265086    0.1572162177    0.3914505218
C       -0.8444186020    1.3723864335    0.5197230755
N        0.4343506237    1.7645751341    0.3054423976
H        2.3686987309    1.4397646451   -0.2315093693
H        0.5835995520   -2.3813001994   -0.6890341638
H       -1.6480873279   -1.9408130715   -0.0590465328
H       -2.5523210172    0.1640669047    0.6442555290
H       -1.4730296765    2.1962520457    0.8613507670
C        1.4303804095   -0.4194756091   -0.4370979885
H        2.3929328596   -0.8106793138   -0.7566410465
13   
Frame   0 IRC: Energy =  -286.9462072305 ; +0.0000 kcal/mol
C        1.5927980874    0.3373116769   -0.4654699911
C        1.1949131981   -0.9668224123   -0.2263173827
C       -0.1051399606   -1.4450283889    0.1707205757
C       -1.3349305159    0.7401140056    0.2899355595
C       -0.3584636629    1.6532756805   -0.0677010263
N        0.9462353619    1.5264004704   -0.4113584472
H        2.6376800823    0.4527151366   -0.7579597885
H        1.9653668003   -1.7222425638   -0.3579084832
H       -0.1963842008   -2.5211024919    0.3002092218
H       -2.3104915964    1.1633962571    0.5151080940
H       -0.6853991510    2.6941718407   -0.0817611041
C       -1.2210106484   -0.6924064405    0.3985552598
H       -2.1251737936   -1.2197827700    0.6939475121
13   
From qcts2.out: Frame 3 / 3, Energy=    -286.8682123023
C        1.2313758266    0.2142611559    0.1524039155
C        1.1145373974   -1.0777610104   -0.5897552320
C       -0.0604773198   -1.5186791363   -0.1330565254
C       -1.2272753680    0.7500133680    0.2783094972
C       -0.4047181732    1.6027459984   -0.5114561074
N        0.8849198766    1.3476749081   -0.5507779952
H        1.9214632669    0.3218558753    0.9923024256
H        1.7803665816   -1.4663203270   -1.3544214470
H       -0.5645965413   -2.4627085528   -0.3461203301
H       -2.1905405040    1.1014333507    0.6400695514
H       -0.7881093658    2.4723078462   -1.0409395662
C       -0.6386931659   -0.4585541492    0.7604872407
H       -1.0582525105   -0.8262693268    1.7029545730
13   
Frame  91 IRC: Energy =  -286.8969190000 ; +30.9289 kcal/mol
C        1.0353053643    0.1299159643    0.2728727481
C        1.0742140721   -1.1269410687   -0.5962416588
C       -0.1385695619   -1.5480539586   -0.2105008476
C       -1.2523622987    0.7510074688    0.2288016915
C       -0.4260712275    1.6744010642   -0.4344993837
N        0.8724925707    1.3843821686   -0.4545798531
H        1.8216842195    0.2198245387    1.0323659012
H        1.8223344834   -1.4967304249   -1.2894938152
H       -0.7551023046   -2.4053252598   -0.4656483834
H       -2.3296604158    0.8258562125    0.3287178283
H       -0.7818515711    2.5708697019   -0.9379095071
C       -0.3937234784   -0.3597332523    0.7356339378
H       -0.5486898519   -0.6194731548    1.7904813419
13   
Frame   0 IRC: Energy =  -286.8969880000 ; +0.0000 kcal/mol
C        1.0042836072    0.2216049221    0.3323543011
C        1.1840799552   -1.0722923328   -0.4629398147
C       -0.0157230430   -1.5629760734   -0.1229705744
C       -1.3127637842    0.6651087789    0.1016386642
C       -0.5104712838    1.6121197592   -0.5576667805
N        0.8035442258    1.4226712253   -0.4715778154
H        1.7326939383    0.4028295862    1.1311373369
H        1.9962824410   -1.4190895109   -1.0936373288
H       -0.5522783367   -2.4767347369   -0.3612575711
H       -2.3971702726    0.6587032431    0.1180217809
H       -0.8933306861    2.4501726519   -1.1360278187
C       -0.4152361736   -0.3466265136    0.7332454093
H       -0.6239105870   -0.5554909989    1.7896802110
13   
From qcts2.out: Frame 3 / 3, Energy=    -286.8564679450
C        0.9107206687    0.1922934025    0.3293812588
C        1.1637796388   -1.1076232596   -0.3979573521
C        0.0537588061   -1.8200138024   -0.2923696531
C       -1.3280836740    0.8342353890    0.2742104657
C       -0.4973969192    1.6248470955   -0.6136444202
N        0.7649693406    1.3058478632   -0.6182957968
H        1.6606050134    0.4533884960    1.0887588344
H        2.0761744307   -1.3367641725   -0.9493216251
H       -0.3377349091   -2.7748592223   -0.6281578083
H       -2.3960574505    0.9505537921    0.4133133440
H       -0.8639296606    2.4290290904   -1.2489757444
C       -0.4967635316   -0.0956225796    0.8701381071
H       -0.7100417531   -0.6553120920    1.7729203900
13   
Frame  89 IRC: Energy =  -286.8749135540 ; +13.8519 kcal/mol
C        0.6584220780    0.0777698540    0.2511410181
C        1.0460861996   -1.2369535382   -0.3988312637
C        0.3970550009   -2.3731616926   -0.2826461068
C       -1.3661811095    1.1610038917    0.4016955702
C       -0.4896729477    1.7544615871   -0.6190688323
N        0.6539600123    1.1670801461   -0.7426094754
H        1.4465895568    0.3354815449    0.9805137156
H        1.9552232016   -1.1818073304   -1.0087060604
H        0.4980078700   -3.3894257558   -0.6396122695
H       -2.3630778551    1.5019224495    0.6553723658
H       -0.7460058983    2.6137571234   -1.2358842761
C       -0.6843668732    0.1263520946    0.9310647733
H       -1.0060392354   -0.5564803743    1.7075708411
