13   
Frame   0 IRC: Energy =  -286.8970570000 ; +0.0000 kcal/mol
C        1.7735676198    0.1350505132    0.0878038119
C        1.0421577649   -0.8386349613   -0.6136452867
C       -0.3618803047   -0.3521262617   -0.7605280900
C       -1.3468850307   -0.7167652232    0.3648938411
C       -0.2674630749    1.0472879030   -0.0317410982
N        1.0985956682    1.2244069860    0.4464801005
H        2.8210631307    0.0390106201    0.3661366373
H        1.4276701454   -1.7932011312   -0.9537925776
H       -0.7610042541   -0.3949112979   -1.7819458922
H       -1.8996588884   -1.6310841757    0.5624265836
H       -0.6132879394    1.9347590990   -0.5743587520
C       -1.2483240624    0.4648441727    0.9884336031
H       -1.6645507746    0.8813637573    1.8998371188
13   
From qcts2.out: Frame 3 / 3, Energy=    -286.8520214090
C        1.8387484605    0.1061605412   -0.0238752880
C        1.0290867482   -0.8709312531   -0.5129707680
C       -0.3295072895   -0.2621781405   -0.7313797560
C       -1.3388556814   -0.6512145835    0.3344155702
C       -0.0468324088    1.1740861526   -0.2605128039
N        1.2112522180    1.3498230991    0.1134465148
H        2.8807938063    0.0121545704    0.2607178898
H        1.2840674759   -1.9106136041   -0.6750337088
H       -0.6952687597   -0.3504767565   -1.7646578091
H       -1.8339269616   -1.6230806353    0.3839034728
H       -0.6834110015    2.0252928016   -0.4819054057
C       -1.4279535968    0.3577801211    1.1836011498
H       -1.9395773024    0.6179510840    2.1033615206
13   
Frame  90 IRC: Energy =  -286.8687476740 ; +17.7644 kcal/mol
C        2.0062347227    0.0728435582   -0.2298844129
C        1.0429644008   -0.8580739509   -0.3651711056
C       -0.2666404067   -0.1201373318   -0.5202776795
C       -1.3637578193   -0.5315002553    0.4461408463
C        0.2209715968    1.3063105951   -0.4030182228
N        1.4982530840    1.4069750243   -0.2592850674
H        3.0722577656   -0.0749282087   -0.1081338999
H        1.1574841112   -1.9342995297   -0.3750851034
H       -0.6435339301   -0.2688891834   -1.5486831928
H       -1.6942803487   -1.5740944543    0.3540714691
H       -0.4238931940    2.1791335456   -0.4555685640
C       -1.9214570523    0.2407012347    1.3514957612
H       -2.6846029299    0.1559589563    2.1133991717
