13   
Frame   0 IRC: Energy =  -286.8743960000 ; +0.0000 kcal/mol
C        0.4849791357   -0.2290290790    0.2385351779
C        0.4185789294   -1.3086068369   -0.8474943871
C        0.8510005440   -2.5411554769   -0.7256288727
C       -1.1172286172    1.4144361376    0.4684871929
C        0.1027647159    1.9071332074   -0.1911839246
N        1.0282020989    1.0160615384   -0.3286792258
H        1.1495728936   -0.5639786715    1.0454920049
H       -0.0522784407   -0.9732037375   -1.7727164474
H        1.3434077873   -3.1700082741    0.0038451299
H       -2.0082334812    1.9970575367    0.6707718026
H        0.2495594838    2.9250607871   -0.5468525140
C       -0.8922392396    0.1165520926    0.7527525598
H       -1.5580858101   -0.5903192243    1.2326715034
13   
From qcts2.out: Frame 3 / 3, Energy=    -286.8437207395
C        0.6060057802   -0.0186178401    0.5950744668
C        0.3906363253   -1.3795835931   -0.9757393698
C        0.7742422508   -2.5450140813   -0.7822098259
C       -1.1602887521    1.3628911027    0.3450105067
C        0.0640880387    1.8887730565   -0.2491011628
N        1.1053273853    1.0956203168   -0.0826729990
H        1.2908033431   -0.6136806163    1.1859302175
H       -0.0320508376   -0.6800509175   -1.6740583659
H        1.1772517800   -3.4276000322   -0.3335559408
H       -2.1329948193    1.8382049728    0.3324637282
H        0.1609939778    2.8319264200   -0.7792430142
C       -0.8137295206    0.1667861185    0.9043831784
H       -1.4419835203   -0.5358425256    1.4356885702
13   
Frame 197 IRC: Energy =  -286.8705379364 ; +2.4210 kcal/mol
C       -0.7632602522    0.0057149871    1.0115006751
C        1.6386894134   -2.2196588729   -1.3983316748
C        2.2602669255   -3.1974389561   -1.7467900176
C       -1.1186383223    2.2034581676    0.7106830341
C       -0.3283769562    1.5914699816   -0.3528765968
N       -0.1292784470    0.2734843963   -0.1486562219
H       -0.7663575929   -0.9968966541    1.4261377491
H        1.0845470216   -1.3526523968   -1.0822970356
H        2.8081485946   -4.0599882006   -2.0517481939
H       -1.4072765464    3.2443061098    0.7715159450
H        0.0779213145    2.0879611409   -1.2272963979
C       -1.3967270301    1.1900028482    1.5825052240
H       -1.9596581224    1.2302374491    2.5056535112
