13   
Frame   0 IRC: Energy =  -286.8625815208 ; +0.0000 kcal/mol
C        1.3165483078   -0.1088114222    0.0324810691
C        0.4480150241   -1.2268466465    0.4587209889
C       -0.8962136219   -1.0932364106    0.5003881265
C       -1.5345316723    0.1958923192    0.2711084259
C       -0.8126120847    1.2778829784   -0.0836735276
N        0.5783437721    1.2040270635   -0.3496592469
H        2.2363881049    0.0488452630    0.5995266632
H        0.9304809464   -2.1475349714    0.7778218605
H       -1.5154733997   -1.9295170571    0.8115451186
H       -2.5920635030    0.3095591578    0.4897950467
H       -1.2248209825    2.2821570916   -0.1074921216
C        1.1763251941    0.4170699307   -1.3306386024
H        1.8896139147    0.7705127035   -2.0699238004
13   
From qcts2.out: Frame 7 / 7, Energy=    -286.7448367099
C        1.6820569399    0.3169688837   -0.2373610110
C        0.1907787383   -1.7788354125    0.6453504685
C       -0.9909686898   -1.2008274153    0.7779623119
C       -1.4329890698    0.1086167491    0.2818620048
C       -0.7151988343    1.1667062145   -0.1501464294
N        0.6784239362    1.4387843657   -0.1198135413
H        2.2796806844   -0.2765765260    0.4267528756
H        0.6275758599   -2.7284552550    0.9273115106
H       -1.7711026419   -1.7739195653    1.2973987706
H       -2.5121911216    0.2424227112    0.2646041912
H       -1.2632668541    2.0426333613   -0.4944351930
C        1.5034656264    1.0245418155   -1.2994760523
H        1.7170898977    1.3966415278   -2.2867632908
13   
Frame 121 IRC: Energy =  -286.7509098683 ; +70.0751 kcal/mol
C        1.6148949458    0.1453523747   -0.8653715982
C        0.1778689086   -1.5844679029    1.3089479915
C       -1.0329454095   -1.1983333284    0.9254017826
C       -1.4361548166    0.0371933324    0.2567814419
C       -0.6313608641    1.0273458886   -0.1903000268
N        0.7688133857    1.0769653373   -0.0246791162
H        1.9156185398   -0.8867212377   -0.8398037336
H        0.5843256393   -2.4354017206    1.8406849593
H       -1.8609574360   -1.8827083751    1.1550248290
H       -2.5054704514    0.1794319896    0.1287308446
H       -1.0748377863    1.9230318826   -0.6255782455
C        1.5938033784    1.3702900506   -1.2441114669
H        1.8864019663    2.2280217088   -1.8257276616
