13   
From optimize.out: Frame 1 / 28, Energy=    -286.6432951556
C        1.4856136616    0.2509154291   -1.5660867272
C        0.6476358694   -0.9842672830   -1.3146896304
C       -0.5476324522   -0.6675886397   -2.0098306697
C       -1.0584862038    0.2665797760   -0.5611239848
C       -0.5713769564    0.8386113360   -2.1329123550
N        0.6056119578    1.3134663331   -1.8348489468
H        2.5035113864    0.1514526564   -1.9103810672
H        0.9798348313   -1.9467937127   -1.6536073315
H       -1.4900918358   -0.9265384280   -2.5581241274
H       -1.9973220781    0.7967245587   -0.4152929726
H       -1.1808258938    1.4842850665   -2.7401053963
C       -0.5534603541   -1.1191435202   -0.1241939467
H       -0.4107663201   -1.5753811221    0.9994342575
13   
From optimize.out: Frame 2 / 28, Energy=    -286.6830859683
C        1.4872561208    0.2410188817   -1.5685725448
C        0.6391111653   -0.9892061128   -1.3318236400
C       -0.5765242572   -0.6575488605   -2.0280938114
C       -1.0713928720    0.2546388933   -0.5631373167
C       -0.5674058276    0.8342065375   -2.1199114830
N        0.6539222215    1.3012310151   -1.8348379760
H        2.5191582174    0.1582516119   -1.8763989574
H        0.9870835638   -1.9606148336   -1.6526587561
H       -1.5066405597   -0.9486548383   -2.5576099661
H       -2.0161396866    0.7676114263   -0.3942948305
H       -1.1908716769    1.4845344835   -2.7148316849
C       -0.5501259013   -1.0893454370   -0.1377230487
H       -0.3951848955   -1.5138003169    0.9581311174
13   
From optimize.out: Frame 3 / 28, Energy=    -286.7148821035
C        1.4746928252    0.2301541241   -1.5740672564
C        0.6288622862   -0.9977133375   -1.3452603579
C       -0.5976811442   -0.6473009891   -2.0488435831
C       -1.0764989501    0.2465135589   -0.5705844654
C       -0.5646650722    0.8281494568   -2.1008806839
N        0.6943535436    1.2841137693   -1.8346481701
H        2.5206936771    0.1663354884   -1.8411505000
H        0.9894609170   -1.9746071482   -1.6473764004
H       -1.5134598537   -0.9688524293   -2.5650546484
H       -2.0260907870    0.7423808469   -0.3804892612
H       -1.1988717047    1.4846570761   -2.6796712765
C       -0.5414063381   -1.0597816009   -0.1513548979
H       -0.3771437869   -1.4517263654    0.9176186032
13   
From optimize.out: Frame 4 / 28, Energy=    -286.7389399923
C        1.4676567313    0.2175267359   -1.5792695786
C        0.6171431875   -1.0075418826   -1.3590914833
C       -0.6176218771   -0.6370530325   -2.0716867467
C       -1.0843889803    0.2437858673   -0.5840812143
C       -0.5663841702    0.8285463628   -2.0820348419
N        0.7265315820    1.2712923190   -1.8385947527
H        2.5272503860    0.1661839782   -1.7993364988
H        0.9884558310   -1.9889151648   -1.6412581083
H       -1.5206291608   -0.9904702693   -2.5763355198
H       -2.0401474726    0.7197607914   -0.3737131209
H       -1.2110846396    1.4914023119   -2.6436993952
C       -0.5259434662   -1.0333686578   -0.1630468346
H       -0.3485923387   -1.3988269092    0.8903851971
13   
From optimize.out: Frame 5 / 28, Energy=    -286.7586004289
C        1.4612210008    0.2043917774   -1.5835255557
C        0.6033185300   -1.0173583111   -1.3710622266
C       -0.6359143058   -0.6272602295   -2.0958306517
C       -1.0921432555    0.2425391262   -0.6022058163
C       -0.5693827761    0.8326463540   -2.0633107748
N        0.7523079062    1.2642503727   -1.8429082913
H        2.5313188161    0.1592419663   -1.7570011780
H        0.9836718041   -2.0025911081   -1.6336753793
H       -1.5255676303   -1.0124343368   -2.5909586677
H       -2.0541340304    0.6967228420   -0.3718627419
H       -1.2232783205    1.5020318451   -2.6080258496
C       -0.5055574478   -1.0087651335   -0.1734148166
H       -0.3136146787   -1.3510927146    0.8720190515
13   
From optimize.out: Frame 6 / 28, Energy=    -286.7752317607
C        1.4556792056    0.1913442653   -1.5869015536
C        0.5881319175   -1.0261255562   -1.3812537305
C       -0.6530825584   -0.6178885101   -2.1205741438
C       -1.0998250929    0.2410347498   -0.6227780882
C       -0.5734601448    0.8384221414   -2.0447441530
N        0.7731483667    1.2588827493   -1.8471645819
H        2.5334416332    0.1477126201   -1.7153378650
H        0.9763962060   -2.0142853771   -1.6257271447
H       -1.5291192896   -1.0334100913   -2.6085346739
H       -2.0675007765    0.6722720106   -0.3721568248
H       -1.2342432771    1.5149651293   -2.5735965545
C       -0.4819158972   -0.9848981680   -0.1822054615
H       -0.2754046802   -1.3057035131    0.8592118772
13   
From optimize.out: Frame 7 / 28, Energy=    -286.7892621549
C        1.4506710378    0.1787830920   -1.5906522394
C        0.5722980504   -1.0340318088   -1.3904660818
C       -0.6692902410   -0.6090521783   -2.1448980660
C       -1.1080682906    0.2382747017   -0.6437491331
C       -0.5775548935    0.8451252983   -2.0266989683
N        0.7902518714    1.2540076306   -1.8516849584
H        2.5336364828    0.1339671515   -1.6750189619
H        0.9674800696   -2.0243574021   -1.6185456112
H       -1.5314962262   -1.0527937622   -2.6281962448
H       -2.0807305182    0.6455363280   -0.3726545429
H       -1.2420536380    1.5297896038   -2.5415917932
C       -0.4564083309   -0.9613850561   -0.1885488863
H       -0.2364897613   -1.2615411483    0.8509425894
13   
From optimize.out: Frame 8 / 28, Energy=    -286.8008208377
C        1.4465712912    0.1665403203   -1.5955351834
C        0.5565777397   -1.0411776186   -1.3998016695
C       -0.6847630146   -0.6003610111   -2.1674692420
C       -1.1177716132    0.2334921130   -0.6635628951
C       -0.5810259546    0.8524857076   -2.0099366039
N        0.8042101871    1.2489469491   -1.8568359096
H        2.5326086434    0.1191888012   -1.6360139686
H        0.9575723887   -2.0330375155   -1.6136031258
H       -1.5328500403   -1.0697028394   -2.6488737203
H       -2.0947512556    0.6157073885   -0.3723162969
H       -1.2458325737    1.5461815978   -2.5133879490
C       -0.4299971640   -0.9378334423   -0.1915719725
H       -0.1983030218   -1.2181080006    0.8471456385
13   
From optimize.out: Frame 9 / 28, Energy=    -286.8100568695
C        1.4431691547    0.1545340835   -1.6016319545
C        0.5414001736   -1.0477888212   -1.4097740982
C       -0.6999441886   -0.5914971438   -2.1866151497
C       -1.1292029712    0.2259222087   -0.6817195098
C       -0.5831854144    0.8603161159   -1.9952777129
N        0.8154695200    1.2436741257   -1.8619798783
H        2.5302697336    0.1044604264   -1.5984357091
H        0.9466920617   -2.0408091158   -1.6118288944
H       -1.5335053609   -1.0833839181   -2.6693939420
H       -2.1098237017    0.5826119988   -0.3717012144
H       -1.2450805752    1.5637547833   -2.4899906541
C       -0.4030210941   -0.9141172210   -0.1909102878
H       -0.1609917255   -1.1753550725    0.8474961070
13   
From optimize.out: Frame 10 / 28, Energy=    -286.8172405985
C        1.4403633235    0.1427671737   -1.6082473377
C        0.5270703199   -1.0539567924   -1.4201009668
C       -0.7155648482   -0.5822395979   -2.2002718185
C       -1.1421797540    0.2149819475   -0.6987682616
C       -0.5837222281    0.8684911884   -1.9833148704
N        0.8243579685    1.2382522269   -1.8660862165
H        2.5266862861    0.0903948041   -1.5625512422
H        0.9346742599   -2.0480175779   -1.6134795483
H       -1.5341085164   -1.0929985989   -2.6884331886
H       -2.1259109941    0.5468255476   -0.3729080451
H       -1.2402852463    1.5819223366   -2.4716379083
C       -0.3754206195   -0.8904240932   -0.1869787252
H       -0.1237143391   -1.1336761145    0.8510152311
13   
From optimize.out: Frame 11 / 28, Energy=    -286.8227972770
C        1.4379584399    0.1315058515   -1.6144396103
C        0.5138250303   -1.0597287352   -1.4297130781
C       -0.7323394657   -0.5725865257   -2.2065479492
C       -1.1559993130    0.2003951525   -0.7158697820
C       -0.5824673512    0.8769416892   -1.9740783785
N        0.8314463674    1.2329898590   -1.8684057027
H        2.5220211063    0.0774003993   -1.5294747262
H        0.9215191083   -2.0549057639   -1.6178789207
H       -1.5352020250   -1.0979437863   -2.7050165285
H       -2.1426461066    0.5093290493   -0.3785382302
H       -1.2325549727    1.6000053300   -2.4575281410
C       -0.3474138229   -0.8673143890   -0.1807264702
H       -0.0859013827   -1.0937656806    0.8564546196
13   
From optimize.out: Frame 12 / 28, Energy=    -286.8272219040
C        1.4359358244    0.1210481435   -1.6196880128
C        0.5018983127   -1.0650858963   -1.4375957384
C       -0.7504646232   -0.5626993968   -2.2047984058
C       -1.1697660107    0.1823939177   -0.7337173896
C       -0.5796350727    0.8856995237   -1.9670804501
N        0.8373469722    1.2280692214   -1.8694155228
H        2.5168582490    0.0654941257   -1.5005957289
H        0.9078741409   -2.0614402598   -1.6237944632
H       -1.5366346627   -1.0981648549   -2.7191927671
H       -2.1593714155    0.4711625592   -0.3895015817
H       -1.2233867070    1.6175053403   -2.4462719760
C       -0.3200002807   -0.8454719188   -0.1730525654
H       -0.0484091146   -1.0561880547    0.8629417038
13   
From optimize.out: Frame 13 / 28, Energy=    -286.8308627779
C        1.4341428425    0.1114884933   -1.6241441415
C        0.4913144876   -1.0701305627   -1.4434488487
C       -0.7695214468   -0.5530225818   -2.1961831626
C       -1.1827313435    0.1615191617   -0.7519918018
C       -0.5757928918    0.8946883192   -1.9616452417
N        0.8423731315    1.2233569749   -1.8700248478
H        2.5116383899    0.0546220170   -1.4767706181
H        0.8945727674   -2.0675949288   -1.6300816716
H       -1.5372657486   -1.0943877506   -2.7325628124
H       -2.1750445904    0.4336203501   -0.4040627817
H       -1.2140204961    1.6342141018   -2.4365638552
C       -0.2944274978   -0.8252755439   -0.1644797140
H       -0.0129919916   -1.0207756001    0.8701965991
13   
From optimize.out: Frame 14 / 28, Energy=    -286.8337808993
C        1.4324242454    0.1026094381   -1.6283082554
C        0.4820698422   -1.0750912607   -1.4476312582
C       -0.7886633066   -0.5444581756   -2.1828408347
C       -1.1946436819    0.1385143463   -0.7691799882
C       -0.5718572768    0.9035180752   -1.9573038187
N        0.8462782412    1.2183535733   -1.8709393262
H        2.5066205302    0.0447023474   -1.4581332837
H        0.8822003951   -2.0735249533   -1.6361868982
H       -1.5347894723   -1.0875950090   -2.7484401117
H       -2.1886035591    0.3991083203   -0.4185794583
H       -1.2057555556    1.6497981998   -2.4273768802
C       -0.2717199252   -0.8068153771   -0.1551825745
H        0.0186851355   -0.9867970746    0.8783397898
13   
From optimize.out: Frame 15 / 28, Energy=    -286.8358669658
C        1.4304028337    0.0941871049   -1.6326702282
C        0.4741372897   -1.0802625188   -1.4504344256
C       -0.8066187935   -0.5384028509   -2.1676493221
C       -1.2054110490    0.1145811489   -0.7826587345
C       -0.5689455823    0.9111848812   -1.9538073197
N        0.8484324612    1.2125263914   -1.8728710380
H        2.5017233773    0.0359972152   -1.4447668074
H        0.8709283842   -2.0796511496   -1.6412051423
H       -1.5255216679   -1.0784892811   -2.7718148522
H       -2.1986139545    0.3720339756   -0.4281345590
H       -1.2005564031    1.6630922159   -2.4175815902
C       -0.2528130176   -0.7905025173   -0.1454579822
H        0.0451017340   -0.9539721653    0.8872891035
13   
From optimize.out: Frame 16 / 28, Energy=    -286.8371334063
C        1.4278521623    0.0864367973   -1.6374545734
C        0.4676263146   -1.0854990200   -1.4515743131
C       -0.8217359641   -0.5363788127   -2.1539014548
C       -1.2151142015    0.0915907818   -0.7892599335
C       -0.5679913411    0.9159813146   -1.9512471550
N        0.8481026207    1.2057868149   -1.8763825329
H        2.4971325372    0.0291048076   -1.4376927245
H        0.8607502879   -2.0861169217   -1.6433696599
H       -1.5057181835   -1.0669913745   -2.8068500565
H       -2.2037161268    0.3580202543   -0.4282114322
H       -1.2006982269    1.6718203145   -2.4063530740
C       -0.2389252990   -0.7776650855   -0.1359769299
H        0.0646810325   -0.9237674204    0.8965109416
13   
From optimize.out: Frame 17 / 28, Energy=    -286.8378280913
C        1.4252240299    0.0804279530   -1.6418957909
C        0.4628601161   -1.0893052250   -1.4495426139
C       -0.8326213004   -0.5392719040   -2.1442145255
C       -1.2246263068    0.0712535867   -0.7870300607
C       -0.5687882621    0.9158359581   -1.9501416750
N        0.8450832406    1.1991351777   -1.8797524544
H        2.4943955647    0.0241188686   -1.4413370049
H        0.8511697887   -2.0919252627   -1.6399106409
H       -1.4744005275   -1.0521844840   -2.8532807906
H       -2.2043039311    0.3601075579   -0.4182352314
H       -1.2068401658    1.6734186961   -2.3937590544
C       -0.2314240553   -0.7702551464   -0.1277056126
H        0.0765174212   -0.8990333259    0.9050425571
13   
From optimize.out: Frame 18 / 28, Energy=    -286.8380843231
C        1.4250729173    0.0795292153   -1.6432223038
C        0.4623107428   -1.0886311769   -1.4451206973
C       -0.8347098562   -0.5429510601   -2.1419327261
C       -1.2301220524    0.0634122715   -0.7809206423
C       -0.5693266050    0.9116246656   -1.9511394443
N        0.8420997381    1.1975064325   -1.8791670399
H        2.4961328661    0.0226769272   -1.4538470121
H        0.8459958396   -2.0934589902   -1.6327479287
H       -1.4543120031   -1.0423302252   -2.8802641654
H       -2.2033609269    0.3700507721   -0.4095936644
H       -1.2125262234    1.6687955505   -2.3875335070
C       -0.2326244226   -0.7714830765   -0.1247111395
H        0.0776155979   -0.8924188558    0.9084373725
13   
From optimize.out: Frame 19 / 28, Energy=    -286.8381773274
C        1.4263031592    0.0807603816   -1.6433609723
C        0.4638114129   -1.0864592241   -1.4414171989
C       -0.8339508242   -0.5445377794   -2.1406765130
C       -1.2327757101    0.0612427558   -0.7768795015
C       -0.5688696696    0.9072812990   -1.9529534938
N        0.8402661042    1.1983345120   -1.8778924931
H        2.4990683877    0.0235472206   -1.4652303668
H        0.8432536383   -2.0934448508   -1.6267139644
H       -1.4459012392   -1.0359051320   -2.8910032448
H       -2.2026927546    0.3768128264   -0.4051846578
H       -1.2148559661    1.6639025696   -2.3863209347
C       -0.2368172937   -0.7757615513   -0.1237690469
H        0.0754063674   -0.8934505773    0.9096394898
13   
From optimize.out: Frame 20 / 28, Energy=    -286.8382039515
C        1.4271524200    0.0817913862   -1.6427221845
C        0.4653177384   -1.0852010508   -1.4404343797
C       -0.8333233078   -0.5445176085   -2.1395872813
C       -1.2332631405    0.0612117118   -0.7760158201
C       -0.5682224783    0.9057299167   -1.9541584546
N        0.8399951561    1.1990287403   -1.8771483947
H        2.5006063089    0.0244656562   -1.4694768024
H        0.8428496862   -2.0931984311   -1.6248004249
H       -1.4460085964   -1.0336167932   -2.8909546485
H       -2.2028993392    0.3779400812   -0.4049254990
H       -1.2145889592    1.6622821358   -2.3873548117
C       -0.2397432360   -0.7789140801   -0.1237037469
H        0.0743733600   -0.8946792144    0.9095195502
13   
From optimize.out: Frame 21 / 28, Energy=    -286.8382236553
C        1.4275858275    0.0824200732   -1.6418188707
C        0.4667325089   -1.0845804707   -1.4402821499
C       -0.8329699686   -0.5440951270   -2.1385558111
C       -1.2329967264    0.0609716984   -0.7761753104
C       -0.5675725423    0.9054097121   -1.9551544467
N        0.8402867276    1.1995583155   -1.8766002379
H        2.5013961622    0.0250720777   -1.4710864116
H        0.8430874916   -2.0932421162   -1.6240411548
H       -1.4481362912   -1.0321693668   -2.8885896363
H       -2.2030911522    0.3774927420   -0.4062468032
H       -1.2142320398    1.6619071462   -2.3881810866
C       -0.2424474816   -0.7821959625   -0.1239363990
H        0.0746030964   -0.8942262718    0.9089054202
13   
From optimize.out: Frame 22 / 28, Energy=    -286.8382420797
C        1.4278059290    0.0823683667   -1.6404286569
C        0.4677019332   -1.0843751474   -1.4407680390
C       -0.8331931225   -0.5437347834   -2.1378962401
C       -1.2331668709    0.0597091113   -0.7769233051
C       -0.5670976540    0.9058501576   -1.9555785070
N        0.8408957583    1.1993707802   -1.8752157073
H        2.5018378369    0.0245668729   -1.4711736024
H        0.8435027937   -2.0932345695   -1.6248362640
H       -1.4507972979   -1.0315053317   -2.8861225408
H       -2.2041438793    0.3757744533   -0.4088138362
H       -1.2135618154    1.6628339905   -2.3879901495
C       -0.2446226092   -0.7851278814   -0.1241605082
H        0.0770846104   -0.8901735690    0.9081444584
13   
From optimize.out: Frame 23 / 28, Energy=    -286.8382649360
C        1.4273813683    0.0814628223   -1.6391683066
C        0.4680342782   -1.0852880765   -1.4415974019
C       -0.8334416186   -0.5431971741   -2.1380386243
C       -1.2331636634    0.0570971844   -0.7779174932
C       -0.5669341596    0.9068267147   -1.9553862820
N        0.8415749041    1.1989069353   -1.8742947353
H        2.5012826905    0.0236064911   -1.4689167954
H        0.8438237181   -2.0940727708   -1.6264906193
H       -1.4526678433   -1.0307612483   -2.8849812040
H       -2.2046411472    0.3738985155   -0.4115992668
H       -1.2135820516    1.6645640009   -2.3859911878
C       -0.2472005913   -0.7890512689   -0.1243409430
H        0.0817797279   -0.8816696755    0.9069599617
13   
From optimize.out: Frame 24 / 28, Energy=    -286.8382899459
C        1.4269032949    0.0796768311   -1.6364522100
C        0.4669680398   -1.0861462363   -1.4427366929
C       -0.8346921167   -0.5430028991   -2.1393579102
C       -1.2354093667    0.0525058912   -0.7795684031
C       -0.5668011283    0.9074718048   -1.9538928796
N        0.8424155272    1.1972821876   -1.8699881443
H        2.5008892144    0.0201703576   -1.4669231768
H        0.8432832500   -2.0942541957   -1.6299255299
H       -1.4539229077   -1.0307237001   -2.8861915191
H       -2.2076422425    0.3700257860   -0.4155248739
H       -1.2122688710    1.6673955648   -2.3820514122
C       -0.2487256192   -0.7920382427   -0.1244415063
H        0.0912485379   -0.8660406991    0.9052913602
13   
From optimize.out: Frame 25 / 28, Energy=    -286.8383116926
C        1.4259255499    0.0773652439   -1.6360852941
C        0.4650078800   -1.0885627372   -1.4437883476
C       -0.8347638333   -0.5425761295   -2.1416208054
C       -1.2367589949    0.0489484087   -0.7799129441
C       -0.5674217239    0.9075570343   -1.9518277558
N        0.8422472504    1.1961905423   -1.8689219109
H        2.4992107943    0.0179384738   -1.4620644915
H        0.8421433502   -2.0960614293   -1.6328524327
H       -1.4513106466   -1.0298668134   -2.8909017909
H       -2.2082927809    0.3685421906   -0.4157374518
H       -1.2128781563    1.6688734001   -2.3773980503
C       -0.2502536561   -0.7948066204   -0.1242312118
H        0.0993905792   -0.8512191140    0.9035795888
13   
From optimize.out: Frame 26 / 28, Energy=    -286.8383240899
C        1.4253502824    0.0762682836   -1.6349762254
C        0.4627083277   -1.0892804785   -1.4438650328
C       -0.8353183283   -0.5426444909   -2.1434913943
C       -1.2388978243    0.0472855557   -0.7804428529
C       -0.5675101320    0.9064668145   -1.9500136138
N        0.8420475271    1.1953993228   -1.8659039048
H        2.4986247815    0.0158549117   -1.4613554312
H        0.8402535235   -2.0963974566   -1.6337599172
H       -1.4488936506   -1.0293944786   -2.8956017832
H       -2.2099875492    0.3666920241   -0.4150261980
H       -1.2120665419    1.6688824008   -2.3750928366
C       -0.2494036530   -0.7942492258   -0.1244659221
H        0.1053388495   -0.8425607328    0.9022322141
13   
From optimize.out: Frame 27 / 28, Energy=    -286.8383278781
C        1.4255042097    0.0760520653   -1.6353754583
C        0.4620895967   -1.0895625911   -1.4441158554
C       -0.8350247485   -0.5427043040   -2.1437477534
C       -1.2395008063    0.0483011129   -0.7798963409
C       -0.5677330451    0.9056713020   -1.9494784991
N        0.8414921013    1.1953656359   -1.8655942376
H        2.4985823719    0.0157035227   -1.4606325078
H        0.8394255708   -2.0967742701   -1.6339016437
H       -1.4473298582   -1.0286979802   -2.8974222725
H       -2.2105024399    0.3666053328   -0.4133872470
H       -1.2120540343    1.6678553270   -2.3755550096
C       -0.2492283063   -0.7936944443   -0.1245937289
H        0.1065250001   -0.8417982587    0.9019376559
