13   
Frame   0 IRC: Energy =  -286.8793120000 ; +0.0000 kcal/mol
C        1.5416823520    0.4345515156   -0.3547560222
C        0.8414183369   -0.8018218203    0.0679501629
C       -0.5894582632   -1.0218467898   -0.3929946855
C       -1.1159098153    0.3149951241    0.1092592345
C       -0.4288241129    1.5408520214   -0.3633114267
N        0.8870633713    1.5749436167   -0.5726297064
H        2.6221306185    0.4385102453   -0.4781805896
H        1.4504309340   -1.6944704329    0.1969641511
H       -1.0776959209   -1.8591588892   -0.8703581753
H       -2.1885397965    0.3845228938    0.2791743495
H       -0.9984778444    2.4436848592   -0.5709460682
C       -0.3513303913   -0.6485901863    1.0006492974
H       -0.5924894688   -1.1061721571    1.9491794791
13   
Frame   1 IRC: Energy =  -286.8787391057 ; +0.3595 kcal/mol
C        1.5436869727    0.4380631305   -0.3394083519
C        0.8366135698   -0.8089478448    0.0370203609
C       -0.6028323358   -1.0115129525   -0.3935308565
C       -1.1096764158    0.3231165429    0.1382650574
C       -0.4306199701    1.5369627220   -0.3801375947
N        0.8856085529    1.5748039699   -0.5722671348
H        2.6309006566    0.4636568455   -0.3745984866
H        1.4395789134   -1.7088982867    0.1356345181
H       -1.1102422586   -1.8398436968   -0.8684076710
H       -2.1771715198    0.4011535024    0.3383059717
H       -1.0122554450    2.4087446791   -0.6675454707
C       -0.3354167185   -0.6543314579    0.9991921751
H       -0.5581740017   -1.1229671537    1.9474774830
13   
Frame   2 IRC: Energy =  -286.8775578164 ; +1.1008 kcal/mol
C        1.5444183444    0.4420534542   -0.3273458501
C        0.8306977991   -0.8159608798    0.0010254040
C       -0.6174113148   -1.0041195248   -0.3963707566
C       -1.1037602819    0.3307761735    0.1590785500
C       -0.4331387506    1.5315188511   -0.3994305444
N        0.8853547025    1.5731440716   -0.5720866444
H        2.6288154597    0.4871451976   -0.2569252994
H        1.4277231313   -1.7231686354    0.0685943746
H       -1.1440282616   -1.8275538060   -0.8572207034
H       -2.1637197401    0.4162915806    0.3898733842
H       -1.0225881047    2.3755658556   -0.7494691636
C       -0.3167408237   -0.6566340703    0.9948185944
H       -0.5156221596   -1.1290582678    1.9454586546
13   
Frame   3 IRC: Energy =  -286.8755752961 ; +2.3448 kcal/mol
C        1.5411757593    0.4432937294   -0.3203897017
C        0.8243044792   -0.8237337977   -0.0402054221
C       -0.6323486809   -1.0014752424   -0.4004481891
C       -1.0976445385    0.3348356086    0.1674760053
C       -0.4353399172    1.5283612607   -0.4228039652
N        0.8842908229    1.5728216439   -0.5716517587
H        2.6124545129    0.5053493654   -0.1261406978
H        1.4161569301   -1.7364554386   -0.0023763159
H       -1.1766271074   -1.8294999334   -0.8321140788
H       -2.1502893316    0.4286428978    0.4271274456
H       -1.0274639548    2.3540104589   -0.8065168604
C       -0.2955679989   -0.6543885620    0.9848042947
H       -0.4631009753   -1.1217619906    1.9432392441
13   
Frame   4 IRC: Energy =  -286.8724793221 ; +4.2876 kcal/mol
C        1.5380794276    0.4438752199   -0.3154128811
C        0.8176857620   -0.8320935268   -0.0845815227
C       -0.6463313935   -1.0029736766   -0.4059344714
C       -1.0924019553    0.3373010903    0.1644356041
C       -0.4362912925    1.5267198596   -0.4457864842
N        0.8831879040    1.5754334597   -0.5678696146
H        2.5762346969    0.5131713653    0.0068396662
H        1.4065177391   -1.7471276682   -0.0733623735
H       -1.2045237159   -1.8446950038   -0.7922916401
H       -2.1373222180    0.4369135097    0.4500769294
H       -1.0278192978    2.3472392748   -0.8439596144
C       -0.2725773094   -0.6481273200    0.9701042609
H       -0.4044383473   -1.1056365837    1.9377421414
13   
Frame   5 IRC: Energy =  -286.8680903197 ; +7.0417 kcal/mol
C        1.5332807218    0.4448269651   -0.3096199409
C        0.8115762055   -0.8393775129   -0.1311810059
C       -0.6580702989   -1.0055615502   -0.4143253499
C       -1.0878559963    0.3384628103    0.1540391771
C       -0.4369236498    1.5293921856   -0.4662138447
N        0.8827300664    1.5818063442   -0.5560917921
H        2.5269250669    0.5076531126    0.1327227471
H        1.3977116887   -1.7559487128   -0.1400451936
H       -1.2261490170   -1.8672734125   -0.7387558520
H       -2.1254735313    0.4379945275    0.4640987150
H       -1.0254377646    2.3494806378   -0.8704941672
C       -0.2478530283   -0.6371557695    0.9504195207
H       -0.3444604631   -1.0842996252    1.9254469866
13   
Frame   6 IRC: Energy =  -286.8621704834 ; +10.7565 kcal/mol
C        1.5270968265    0.4463607489   -0.2991854504
C        0.8079124399   -0.8468484013   -0.1802086170
C       -0.6650657692   -1.0046032055   -0.4303562432
C       -1.0833599928    0.3405490361    0.1379250227
C       -0.4392889693    1.5373132406   -0.4829814848
N        0.8814410858    1.5910491252   -0.5331014053
H        2.4713231255    0.4855550385    0.2443274635
H        1.3859494084   -1.7692056111   -0.1961956540
H       -1.2387710512   -1.8877419257   -0.6711529497
H       -2.1130072012    0.4265051535    0.4746402505
H       -1.0280657124    2.3567181889   -0.8908020764
C       -0.2196018311   -0.6184786420    0.9248927544
H       -0.2865623589   -1.0571727462    1.9021983897
13   
Frame   7 IRC: Energy =  -286.8538409071 ; +15.9834 kcal/mol
C        1.5066652050    0.4418537687   -0.2652457493
C        0.8080523248   -0.8649300807   -0.2281345139
C       -0.6603316227   -0.9878719658   -0.4638804424
C       -1.0764789435    0.3461958874    0.1194825000
C       -0.4502708227    1.5493274096   -0.4963083818
N        0.8728872020    1.5914870161   -0.5045836640
H        2.4198978188    0.4501618881    0.3274982343
H        1.3756217916   -1.7986388721   -0.2350393205
H       -1.2351010725   -1.8886707354   -0.5938365885
H       -2.0964025840    0.4046660549    0.4845902083
H       -1.0453527050    2.3653631605   -0.9054669340
C       -0.1854341584   -0.5870455874    0.8925005534
H       -0.2337524335   -1.0218979439    1.8684240984
13   
Frame   8 IRC: Energy =  -286.8389755037 ; +25.3116 kcal/mol
C        1.4537019510    0.4286688400   -0.1867272259
C        0.7977091259   -0.8993250017   -0.2614920671
C       -0.6559066684   -0.9649594199   -0.5425899325
C       -1.0680252011    0.3452657152    0.1097421785
C       -0.4656880500    1.5547050516   -0.4959683732
N        0.8600843102    1.5779729059   -0.5008414135
H        2.3891914021    0.4270810710    0.3622621255
H        1.3765450782   -1.8272490992   -0.2509062343
H       -1.2261936192   -1.8808851016   -0.5461410813
H       -2.0846519246    0.3919389190    0.4880386522
H       -1.0572727459    2.3648439882   -0.9096757911
C       -0.1212495477   -0.5277223408    0.8852326789
H       -0.1982441105   -0.9903355277    1.8490664837
13   
Frame   9 IRC: Energy =  -286.8185147853 ; +38.1509 kcal/mol (Transition State)
C        1.3989876748    0.4126484042   -0.0986549932
C        0.7771483347   -0.9355502971   -0.2770219666
C       -0.6627418103   -0.9555106709   -0.6419198302
C       -1.0635974058    0.3410599523    0.1084695307
C       -0.4721836298    1.5518961630   -0.4896737511
N        0.8457594464    1.5700793701   -0.5135637094
H        2.3748102187    0.4179265787    0.3745475069
H        1.3792667555   -1.8408694194   -0.2568469824
H       -1.2240953078   -1.8792844113   -0.5270088536
H       -2.0820429174    0.3873266143    0.4882033308
H       -1.0586145283    2.3599355230   -0.9096684125
C       -0.0391031154   -0.4630501650    0.8976828015
H       -0.1735937154   -0.9666076419    1.8454553289
13   
Frame  10 IRC: Energy =  -286.8197996093 ; +37.3446 kcal/mol
C        1.3496036130    0.3853636161   -0.0082544254
C        0.7495806634   -0.9644055414   -0.2873444470
C       -0.6764850104   -0.9503878470   -0.7377458946
C       -1.0609475629    0.3174830477    0.1110686534
C       -0.4668298218    1.5461319728   -0.4870509077
N        0.8259468263    1.5706666975   -0.5289784454
H        2.3650552295    0.4130657331    0.3803591993
H        1.3801043858   -1.8456850861   -0.2617606961
H       -1.2234297420   -1.8728277373   -0.5236634846
H       -2.0807804073    0.3838400656    0.4878767831
H       -1.0571997074    2.3558805881   -0.9102869465
C        0.0432814732   -0.3949158652    0.9190719781
H       -0.1478999393   -0.9442096439    1.8467086335
13   
Frame  11 IRC: Energy =  -286.8373819105 ; +26.3116 kcal/mol
C        1.2955636421    0.3573647822    0.0893918851
C        0.7223597213   -0.9855330104   -0.3074918470
C       -0.6868466637   -0.9425483585   -0.8029021539
C       -1.0542405701    0.2830185691    0.1036304277
C       -0.4667731216    1.5386850093   -0.4898014347
N        0.8132929971    1.5641321628   -0.5316126889
H        2.3444154052    0.4006981360    0.3906319888
H        1.3768168399   -1.8500917990   -0.2720888624
H       -1.2266548477   -1.8595075410   -0.5394110392
H       -2.0733091230    0.3727818621    0.4880439372
H       -1.0573659604    2.3502032982   -0.9130128904
C        0.1152412772   -0.3226274845    0.9389940902
H       -0.1024995962   -0.9065756263    1.8456285876
13   
Frame  12 IRC: Energy =  -286.8466133559 ; +20.5187 kcal/mol
C        1.2629853130    0.3503905403    0.1467517830
C        0.7080794228   -0.9945561160   -0.3202900614
C       -0.6872964130   -0.9360270722   -0.8295627665
C       -1.0498405492    0.2649996326    0.0926472825
C       -0.4725234478    1.5283544533   -0.4954369446
N        0.8079191717    1.5595530638   -0.5088676663
H        2.3097990867    0.3672671381    0.4320216522
H        1.3644003633   -1.8580862126   -0.2972955831
H       -1.2477931985   -1.8447330632   -0.5958792529
H       -2.0610073937    0.3417531550    0.4898935154
H       -1.0611539479    2.3357065701   -0.9262941151
C        0.1376422934   -0.2839212168    0.9431785973
H       -0.0112107008   -0.8307008725    1.8691335594
13   
Frame  13 IRC: Energy =  -286.8518142948 ; +17.2551 kcal/mol
C        1.2538482930    0.3473793632    0.1582948134
C        0.6983827438   -1.0029986225   -0.3138306224
C       -0.6852735326   -0.9242459963   -0.8436824726
C       -1.0510480551    0.2535596750    0.0987994799
C       -0.4752041163    1.5239019842   -0.4918405301
N        0.8046409307    1.5602937633   -0.4970121595
H        2.2892871495    0.3411826508    0.4843384703
H        1.3542229240   -1.8662348346   -0.3271043767
H       -1.2753434115   -1.8299819384   -0.6909888960
H       -2.0644113498    0.3097607210    0.4923244035
H       -1.0663088456    2.3148983240   -0.9489511939
C        0.1439698994   -0.2822692762    0.9502545236
H        0.0732373705   -0.7452458135    1.9293985605
13   
Frame  14 IRC: Energy =  -286.8548260575 ; +15.3652 kcal/mol
C        1.2496942340    0.3422175342    0.1686710631
C        0.6891949789   -1.0155968785   -0.2959139039
C       -0.6795573987   -0.9108648747   -0.8482415267
C       -1.0510737504    0.2421507047    0.1145098777
C       -0.4796351543    1.5124828044   -0.4866668999
N        0.8010168336    1.5502407846   -0.4959611869
H        2.2773460134    0.3302213365    0.5137539432
H        1.3472792683   -1.8761627529   -0.3462342424
H       -1.2978159844   -1.8065646768   -0.8149051204
H       -2.0677723317    0.2840148577    0.5024856427
H       -1.0732382349    2.2879882929   -0.9687177351
C        0.1504611213   -0.2806043050    0.9706642868
H        0.1341004049   -0.6595228273    1.9865558018
13   
Frame  15 IRC: Energy =  -286.8562831959 ; +14.4508 kcal/mol
C        1.2485436859    0.3389024607    0.1746309289
C        0.6805483256   -1.0305165509   -0.2688731458
C       -0.6729731321   -0.9022172203   -0.8414800004
C       -1.0495380808    0.2307103511    0.1350571903
C       -0.4855185921    1.4993561612   -0.4858078862
N        0.7945942683    1.5367157256   -0.5037507968
H        2.2781783724    0.3277161583    0.5160154045
H        1.3401866622   -1.8886265327   -0.3340517634
H       -1.3140877089   -1.7706259738   -0.9608475710
H       -2.0653482598    0.2651946967    0.5279597071
H       -1.0852282148    2.2574700153   -0.9842512187
C        0.1602964048   -0.2725557711    0.9939034716
H        0.1703462692   -0.5915235200    2.0314956800
13   
Frame  16 IRC: Energy =  -286.8568830000 ; +14.0744 kcal/mol
C        1.2495551699    0.3389750283    0.1778005905
C        0.6708581651   -1.0453487099   -0.2388912651
C       -0.6712172310   -0.9027659458   -0.8204916817
C       -1.0485186997    0.2218108601    0.1562543388
C       -0.4927988167    1.4836210039   -0.4886893422
N        0.7887234714    1.5232100901   -0.5168968377
H        2.2837461598    0.3299321067    0.5034090820
H        1.3325875695   -1.9022636840   -0.3014600992
H       -1.3209131627   -1.7213484572   -1.1058995740
H       -2.0604529468    0.2553746251    0.5591483988
H       -1.0992199296    2.2288862140   -1.0000479475
C        0.1717115744   -0.2616104887    1.0145504969
H        0.1959386762   -0.5484726424    2.0612138403
