13   
From optimize.out: Frame 1 / 2, Energy=    -286.9514917220
C        1.8971984251    0.2740493145   -0.5361073664
C        1.2459137076   -0.9632674531   -0.6346891543
C       -0.0765072699   -1.0594478029   -0.2370396338
C       -0.7452312499    0.0937983533    0.2616426217
C        0.0336572926    1.2908312153    0.3095847326
N        1.3003488156    1.3867016300   -0.0709268702
H        2.9362621726    0.3797410279   -0.8412012353
H        1.7780705961   -1.8285668725   -1.0197773807
H       -0.6116480665   -2.0038752071   -0.2999359895
H       -2.6774642220   -0.8299070082    0.6468948197
H       -0.4300831383    2.2048005250    0.6816333215
C       -2.0859487614    0.0782627683    0.6823172581
H       -2.5645683021    0.9768795099    1.0576048761
