13   
From qcts2.out: Frame 4 / 4, Energy=    -286.7545493603
C        1.5197972723    0.2679143033    0.1122081882
C        1.1870102330   -1.1374552068    0.3507060664
C       -0.0079539064   -1.6444344037    0.6294488386
C       -1.5990127849    0.8172691087   -0.3878468129
C       -0.5546876547    1.4717469649    0.3387309112
N        0.7734714981    1.3237536714    0.2330192412
H        2.5662421942    0.4624892809   -0.1257781915
H        2.0505225258   -1.8138435431    0.3142704828
H       -0.4127654580   -2.6277561022    0.8294272597
H       -2.5973347047    1.2067128410   -0.1769633129
H       -0.8592750422    2.3241276856    0.9452679625
C       -1.4964069253   -0.1559784054   -1.3171286306
H       -0.7444871973   -0.7353822614   -1.8306126361
