13   
From optimize.out: Frame 1 / 3, Energy=    -286.8249799393
C        1.3175376957    0.3260536462    0.1689661299
C        0.6050617281   -1.0118912234   -0.1161619115
C       -0.7148334659   -0.5389634140   -0.7755500819
C       -1.0622747948    0.2277333884    0.4700734380
C       -0.5489791095    0.9936570922   -0.7632769488
N        0.8043632618    1.3784219360   -0.6236768501
H        2.3653385129    0.3422216299    0.4481763777
H        1.1203351132   -1.9571519180   -0.2446515673
H       -1.3482001755   -1.0767966681   -1.4719831233
H       -2.0207837719    0.4078726176    0.9438399028
H       -1.2175742908    1.6244261708   -1.3386458080
C        0.2583858724   -0.2447165074    1.1292151607
H        0.4416234241   -0.4708667503    2.1736752817
13   
From optimize.out: Frame 2 / 3, Energy=    -286.8249829252
C        1.3177654079    0.3256546755    0.1681537017
C        0.6049401942   -1.0116855119   -0.1162324153
C       -0.7150254999   -0.5389824520   -0.7751480011
C       -1.0622915239    0.2278606553    0.4706323464
C       -0.5491351006    0.9933094618   -0.7637723064
N        0.8040625507    1.3784084904   -0.6235979995
H        2.3651161127    0.3430303404    0.4488911432
H        1.1193916097   -1.9573914604   -0.2446217259
H       -1.3471129764   -1.0766555383   -1.4729525900
H       -2.0206955188    0.4085797716    0.9443289630
H       -1.2178018577    1.6242066406   -1.3390939632
C        0.2584007537   -0.2447880730    1.1295824365
H        0.4423858483   -0.4715470001    2.1738304105
