13   
From optimize.out: Frame 1 / 5, Energy=    -286.8723773489
C        1.5286042775    0.2579559974   -0.7044911869
C       -0.2550464958   -1.2907817984    0.0149866545
C       -1.4880621668   -1.1748815390    0.6058661523
C       -1.7245674756    0.2176719229    0.8256377655
C       -0.6287693243    0.9025980020    0.3620916938
N        0.2758265581   -0.0189430845   -0.1369616665
H        2.0387620498   -0.6390138148   -1.0662062358
H        0.3027718750   -2.1580622248   -0.3097460232
H       -2.1493767998   -1.9932181632    0.8566046537
H       -2.6046068783    0.6627905805    1.2701991738
H       -0.3999668787    1.9573290663    0.3281976183
C        2.0902711136    1.4445663525   -0.8230975780
H        3.0141601452    1.8319887033   -1.2230810213
13   
From optimize.out: Frame 2 / 5, Energy=    -286.8723842176
C        1.5298665835    0.2567097557   -0.7016450107
C       -0.2558615724   -1.2910991833    0.0131198203
C       -1.4882350757   -1.1748332895    0.6050862264
C       -1.7235958448    0.2180117277    0.8256867810
C       -0.6282638795    0.9027006570    0.3609316243
N        0.2759495027   -0.0195860773   -0.1369899911
H        2.0432351029   -0.6416106896   -1.0551380270
H        0.3008735218   -2.1576797052   -0.3144123430
H       -2.1505106163   -1.9926747910    0.8548633773
H       -2.6024432447    0.6632148425    1.2726439319
H       -0.3988872767    1.9573887776    0.3297601862
C        2.0873712977    1.4447295072   -0.8269286899
H        3.0105015013    1.8347284683   -1.2269778857
13   
From optimize.out: Frame 3 / 5, Energy=    -286.8723897864
C        1.5315429645    0.2550833655   -0.6989490928
C       -0.2561464030   -1.2915255484    0.0127180334
C       -1.4895516972   -1.1745883262    0.6023720907
C       -1.7231213237    0.2185075610    0.8246315547
C       -0.6256854575    0.9022475326    0.3635168221
N        0.2763947641   -0.0204151065   -0.1369164555
H        2.0526086075   -0.6457755716   -1.0339248574
H        0.2990806421   -2.1571449426   -0.3190035173
H       -2.1545887720   -1.9914397356    0.8479420465
H       -2.6010702374    0.6638637565    1.2733655545
H       -0.3938762846    1.9565568026    0.3399758366
C        2.0812792197    1.4452944400   -0.8380471882
H        3.0031339774    1.8393357731   -1.2376808272
13   
From optimize.out: Frame 4 / 5, Energy=    -286.8723918320
C        1.5326214455    0.2552629442   -0.6975500220
C       -0.2568408480   -1.2911904222    0.0115855763
C       -1.4901538521   -1.1744664535    0.6016286054
C       -1.7233158391    0.2183103231    0.8253889707
C       -0.6257840631    0.9020470511    0.3642676624
N        0.2770538238   -0.0202297601   -0.1356386413
H        2.0566922278   -0.6460968912   -1.0265644859
H        0.2974909381   -2.1569712881   -0.3219440866
H       -2.1554305769   -1.9913596442    0.8464020022
H       -2.6011647030    0.6635002325    1.2743899541
H       -0.3933865375    1.9562354317    0.3416118992
C        2.0802295819    1.4456500530   -0.8420820452
H        3.0019884025    1.8393084239   -1.2414953890
