13   
From optimize.out: Frame 2 / 3, Energy=    -286.8505816574
C        0.0319714848   -0.5333175667   -0.1427400561
C        1.5576113711   -0.4988355063   -0.0351273078
C        2.3711780219   -1.3299123757   -0.6406536961
C       -1.3603029260    1.2874427662    0.1039385723
C       -1.3430895248    0.4247886342    1.2952133943
N       -0.5766590089   -0.6087100396    1.1965567815
H       -0.2668709717   -1.4316102531   -0.6999986983
H        1.9464765813    0.3017313693    0.5964272419
H        2.2991653582   -2.1878093685   -1.2978372333
H       -1.9380964353    2.1976527738   -0.0111081502
H       -1.9187150676    0.6090736045    2.2016245916
C       -0.5296299095    0.7136112444   -0.7852588237
H       -0.2730389731    1.0558947172   -1.7810366164
13   
From optimize.out: Frame 3 / 4, Energy=    -286.7674816576
C        0.6361521759   -0.6402014665   -0.1611847363
C        2.1410583663   -0.6065448478   -0.0723411055
C        1.6183799667   -1.7849237975   -0.1723817372
C       -1.8147451428    1.1387689623   -0.0129924155
C       -1.1676833163    0.3044580954    1.0481538219
N       -0.1257894915   -0.4322544217    1.0309754361
H        0.1481540409   -0.3490608421   -1.0971553315
H        2.9981662484    0.0384734305    0.0542579594
H        1.7154736240   -2.8597987232   -0.2004467662
H       -2.8743916844    1.3288367082    0.1855599930
H       -1.7048042684    0.3477168038    2.0016850729
C       -1.2718271235    1.7072839776   -1.0714398701
H       -0.2981433953    1.8072461211   -1.5326903209
