13   
Frame   0 IRC: Energy =  -286.7948930000 ; +0.0000 kcal/mol
C        0.8009712414   -0.4961334159   -0.0259176100
C        2.2696621220   -0.7635656895    0.1884726984
C        1.5823832253   -1.7642811005   -0.2614852715
C       -1.6790656886    1.1171565643   -0.0266559691
C       -1.1212553819    0.2917622329    1.0780419992
N       -0.0549043236   -0.4181804156    1.1114898170
H        0.4826926407    0.1086500725   -0.8908448211
H        3.1944874840   -0.3305268420    0.5360657065
H        1.5013018508   -2.7944984829   -0.5709554102
H       -2.6146580412    1.6267137121    0.2357961033
H       -1.7210312327    0.3005128704    1.9908393519
C       -1.1789453578    1.2852077173   -1.2387220383
H       -1.4616385380    1.8371827775   -2.1261245562
13   
Frame   1 IRC: Energy =  -286.7933727202 ; +0.9540 kcal/mol
C        0.7914607800   -0.4803826328   -0.0473507263
C        2.2598162186   -0.7502435272    0.1727265058
C        1.5725582305   -1.7506002183   -0.2788807845
C       -1.7185052364    1.1336752778   -0.0009303563
C       -1.1337379677    0.2965777702    1.0859328105
N       -0.0623180488   -0.4059371196    1.0923675693
H        0.4773378403    0.1239152080   -0.9148501870
H        3.1820224884   -0.3215894243    0.5316942189
H        1.4902211296   -2.7833673731   -0.5785173012
H       -2.6524022020    1.6347643172    0.2876252874
H       -1.7152218506    0.2866361056    2.0120198286
C       -1.1831586181    1.2699186219   -1.2004820160
H       -1.3080727638    1.7466329946   -2.1613548490
13   
Frame   2 IRC: Energy =  -286.7889512238 ; +3.7285 kcal/mol
C        0.7924051071   -0.4742108706   -0.0634666848
C        2.2598518685   -0.7491281323    0.1680186041
C        1.5733486254   -1.7486503723   -0.2834657527
C       -1.7578651081    1.1525107145    0.0178068340
C       -1.1356705829    0.2994993644    1.0813467634
N       -0.0632180592   -0.3987799767    1.0748728710
H        0.4884339799    0.1248496721   -0.9308595890
H        3.1810141421   -0.3212494272    0.5315546230
H        1.4896679799   -2.7829324221   -0.5786566553
H       -2.6894808774    1.6292572074    0.3623606505
H       -1.7079361701    0.2808999996    2.0124791124
C       -1.2714337204    1.3249619070   -1.1907298502
H       -1.1591171848    1.6629723362   -2.2012609264
13   
Frame   3 IRC: Energy =  -286.7866282416 ; +5.1862 kcal/mol (Transition State)
C        0.7933676731   -0.4722315741   -0.0701208947
C        2.2604311989   -0.7485659616    0.1650939640
C        1.5742131359   -1.7479411902   -0.2861499550
C       -1.7674738760    1.1554235540    0.0257718675
C       -1.1308887098    0.2981475708    1.0759551122
N       -0.0590071090   -0.3997426094    1.0697378661
H        0.4935494970    0.1246179351   -0.9363491549
H        3.1804915432   -0.3211748842    0.5320316857
H        1.4892809351   -2.7830865917   -0.5779136965
H       -2.6935653645    1.6179921916    0.3971011248
H       -1.7038931450    0.2802678023    2.0071645421
C       -1.4060769185    1.4216577964   -1.2068027229
H       -1.0304288603    1.5746359610   -2.1955197383
13   
Frame   4 IRC: Energy =  -286.7896864230 ; +3.2672 kcal/mol
C        0.7962112347   -0.4709964175   -0.0780088752
C        2.2621380166   -0.7484655975    0.1620743306
C        1.5761212772   -1.7479497819   -0.2890401173
C       -1.7804733869    1.1670794555    0.0193709406
C       -1.1289973819    0.3046287608    1.0564621203
N       -0.0591089140   -0.3947751088    1.0569118620
H        0.4988144195    0.1247744209   -0.9443011303
H        3.1804639852   -0.3212257923    0.5335274051
H        1.4891033411   -2.7841322844   -0.5764451073
H       -2.6980993509    1.6107430256    0.4229209402
H       -1.6998479932    0.2849848838    1.9883443336
C       -1.5193146693    1.5059841598   -1.2288633644
H       -0.9170105780    1.4693502759   -2.1229533379
13   
Frame   5 IRC: Energy =  -286.7912330000 ; +2.2967 kcal/mol
C        0.7939399765   -0.4589053702   -0.1041351381
C        2.2566726772   -0.7409352510    0.1522431912
C        1.5713748105   -1.7403958364   -0.2994955608
C       -1.8168176786    1.1894388859    0.0265806197
C       -1.1429801940    0.3189736438    1.0431670082
N       -0.0696652783   -0.3755563555    1.0245764159
H        0.5144685049    0.1305154731   -0.9803362514
H        3.1731364385   -0.3162830460    0.5312896027
H        1.4841054353   -2.7786817248   -0.5793103761
H       -2.7314911636    1.6309554285    0.4351551956
H       -1.7011474855    0.2865033940    1.9824950401
C       -1.5248284489    1.5063490361   -1.2212353580
H       -0.8067675940    1.3480217226   -2.0109943889
