13   
From optimize.out: Frame 1 / 2, Energy=    -286.8549487882
C        1.4686732685    0.4434648827   -0.3530738584
C        0.8844898150   -0.7852997800    0.2158355540
C       -0.7449175472   -0.8064664611    0.1739773918
C       -1.3117588051    0.4547650255   -0.3303380734
C       -0.5481144770    1.5423396026   -0.5757289614
N        0.8460300516    1.5355555592   -0.6348741906
H        2.5303145794    0.3995219587   -0.6079325517
H        1.4411642486   -1.6994013932    0.0000858207
H       -1.2584586499   -1.7272652578   -0.1086158969
H       -2.3826894973    0.4875523101   -0.5153848406
H       -1.0043020908    2.4797194493   -0.8832408489
C        0.0350901728   -0.7972998302    1.4092860838
H        0.0444789317   -1.5271860652    2.2100043717
