13   
From optimize.out: Frame 1 / 27, Energy=    -286.6499640914
C        1.2327470944    0.1822936509   -1.1952922431
C        0.4762600568   -1.1590477055   -1.0849940370
C       -0.7895922046   -0.5982468002   -2.2575363973
C       -1.1250215908    0.0047550621   -0.4459442803
C       -0.6586032874    0.9035437792   -1.9145655914
N        0.8912296832    1.3390975700   -1.5478749731
H        2.1682170976    0.1990744937   -0.5831309846
H        1.2350823709   -1.9464056127   -1.1810565186
H       -1.1369605806   -1.5920103737   -2.1268015344
H       -1.9980921963    0.3070872651    0.1239860989
H       -1.3597692314    1.5993594466   -2.4385751045
C       -0.1267920611   -0.7790707121    0.2355090379
H        0.2102924680   -0.5718049088    1.2860010558
13   
From optimize.out: Frame 2 / 27, Energy=    -286.6905921892
C        1.2881550564    0.1802698265   -1.1911965933
C        0.5023170820   -1.1364702029   -1.0881479361
C       -0.7875762496   -0.5999475923   -2.2189616689
C       -1.1523963522    0.0198441959   -0.4509839802
C       -0.6602850862    0.8815851423   -1.8770163647
N        0.8692064574    1.3147756757   -1.5502710872
H        2.2393947191    0.2039598135   -0.6128302184
H        1.2492634571   -1.9306932425   -1.2014397342
H       -1.1524599704   -1.5970093749   -2.0980888303
H       -2.0447956417    0.3307231573    0.0873228230
H       -1.3495940201    1.5739813355   -2.3951350076
C       -0.1555918741   -0.7675013371    0.2117637743
H        0.1733600409   -0.5848922423    1.2547093518
13   
From optimize.out: Frame 3 / 27, Energy=    -286.7237097020
C        1.3204223930    0.1827763768   -1.1902843271
C        0.5177561010   -1.1169694496   -1.0916763172
C       -0.7736540786   -0.6072437609   -2.1781403375
C       -1.1638879765    0.0369170860   -0.4637113293
C       -0.6505648288    0.8575702491   -1.8354655728
N        0.8314352353    1.2940787130   -1.5506983643
H        2.2799201194    0.2233805237   -0.6424120799
H        1.2468768674   -1.9236132898   -1.2184619561
H       -1.1590560524   -1.6029464116   -2.0652701233
H       -2.0714148037    0.3603418830    0.0410037256
H       -1.3274420130    1.5514972003   -2.3481579022
C       -0.1792723172   -0.7606155600    0.1873874205
H        0.1478789727   -0.6065484054    1.2256116918
13   
From optimize.out: Frame 4 / 27, Energy=    -286.7493196980
C        1.3486106438    0.1899807427   -1.1923957588
C        0.5319195528   -1.0979226943   -1.0929238194
C       -0.7563268192   -0.6191811601   -2.1389885186
C       -1.1723129507    0.0530435455   -0.4780213314
C       -0.6394032409    0.8392204249   -1.7963232788
N        0.7950415695    1.2771434265   -1.5510496473
H        2.3190863831    0.2480951018   -0.6778874993
H        1.2381156187   -1.9217352913   -1.2307259188
H       -1.1687088684   -1.6088486757   -2.0352378978
H       -2.0948483622    0.3858132999   -0.0078374691
H       -1.3064896269    1.5360900183   -2.3080360534
C       -0.1991960941   -0.7573069140    0.1700501915
H        0.1235098131   -0.6357666694    1.2091015295
13   
From optimize.out: Frame 5 / 27, Energy=    -286.7678764937
C        1.3741799712    0.2016627123   -1.1971946543
C        0.5467848812   -1.0779562399   -1.0913393292
C       -0.7362660716   -0.6329122632   -2.1019620594
C       -1.1786117061    0.0659084495   -0.4895687492
C       -0.6295728858    0.8272038831   -1.7636644610
N        0.7703337701    1.2677662706   -1.5521493352
H        2.3571412863    0.2742496111   -0.7183268200
H        1.2241220312   -1.9237725643   -1.2360512094
H       -1.1849100867   -1.6107627484   -2.0093297300
H       -2.1166064828    0.4015482057   -0.0533645978
H       -1.2898607289    1.5239114722   -2.2792017059
C       -0.2156388348   -0.7568548393    0.1596040451
H        0.0979024755   -0.6713667948    1.2022731347
13   
From optimize.out: Frame 6 / 27, Energy=    -286.7811694891
C        1.3962514678    0.2145077544   -1.2028156929
C        0.5626106892   -1.0590970342   -1.0868790399
C       -0.7137418859   -0.6450450121   -2.0695982807
C       -1.1829418284    0.0743301850   -0.4959238582
C       -0.6235149185    0.8204111422   -1.7404605368
N        0.7583096880    1.2655346121   -1.5540774789
H        2.3917861626    0.2969045623   -0.7589153647
H        1.2084139484   -1.9285479931   -1.2333147478
H       -1.2080976386   -1.6039920645   -1.9925245390
H       -2.1360248623    0.4057537449   -0.0903884337
H       -1.2805359915    1.5127850464   -2.2633923617
C       -0.2272024117   -0.7575211635    0.1554234243
H        0.0736851995   -0.7073986253    1.2025914382
13   
From optimize.out: Frame 7 / 27, Energy=    -286.7914497900
C        1.4133136091    0.2256832891   -1.2081755807
C        0.5783298873   -1.0439191376   -1.0801704048
C       -0.6888840250   -0.6549607934   -2.0419633491
C       -1.1849271357    0.0792971929   -0.4976605959
C       -0.6203554129    0.8157687293   -1.7248550564
N        0.7519670211    1.2662356505   -1.5565179733
H        2.4200730687    0.3154918213   -0.7964356391
H        1.1950917341   -1.9343350089   -1.2244415913
H       -1.2368748132   -1.5871730959   -1.9877664367
H       -2.1517765495    0.4026418299   -0.1191266670
H       -1.2763302841    1.5012435479   -2.2563671612
C       -0.2339151662   -0.7582885958    0.1560871910
H        0.0532856850   -0.7390602747    1.2071177929
13   
From optimize.out: Frame 8 / 27, Energy=    -286.7999453414
C        1.4261381015    0.2347836033   -1.2130231568
C        0.5931974691   -1.0328590305   -1.0715458976
C       -0.6631654929   -0.6634847436   -2.0173925593
C       -1.1848535218    0.0820257847   -0.4957656482
C       -0.6189905759    0.8112126844   -1.7147189383
N        0.7477609533    1.2674473473   -1.5598555061
H        2.4425501294    0.3310628438   -0.8305141224
H        1.1856764753   -1.9401893622   -1.2109451265
H       -1.2696220596   -1.5607975910   -1.9962399085
H       -2.1638397889    0.3954516644   -0.1408568085
H       -1.2756828871    1.4883718291   -2.2547137310
C       -0.2369721746   -0.7588383801    0.1605835610
H        0.0368009908   -0.7655614950    1.2147123705
13   
From optimize.out: Frame 9 / 27, Energy=    -286.8070959025
C        1.4355873203    0.2420891870   -1.2173258023
C        0.6065775934   -1.0254474401   -1.0609411736
C       -0.6387343324   -0.6709817591   -1.9942644315
C       -1.1832399590    0.0833195215   -0.4909007537
C       -0.6187710805    0.8059775447   -1.7088766751
N        0.7450085700    1.2684705976   -1.5644207343
H        2.4604632303    0.3438075427   -0.8619188060
H        1.1796917208   -1.9459517506   -1.1933993973
H       -1.3034931840   -1.5260876667   -2.0190392458
H       -2.1728510891    0.3851496857   -0.1560495629
H       -1.2780132870    1.4738020240   -2.2565590637
C       -0.2372204526   -0.7586083383    0.1684065334
H        0.0239925685   -0.7869139938    1.2250136412
13   
From optimize.out: Frame 10 / 27, Energy=    -286.8129853663
C        1.4421594438    0.2478215664   -1.2211519122
C        0.6178238616   -1.0208701857   -1.0484511862
C       -0.6180435748   -0.6774610364   -1.9712048716
C       -1.1806741071    0.0837192382   -0.4840205076
C       -0.6190434683    0.8000803612   -1.7064732296
N        0.7437025971    1.2691437183   -1.5701532962
H        2.4747376672    0.3532751322   -0.8914667842
H        1.1757719527   -1.9515584716   -1.1724706414
H       -1.3348928746   -1.4852299199   -2.0558702777
H       -2.1797300796    0.3714876542   -0.1653902578
H       -1.2826330610    1.4580629126   -2.2603562365
C       -0.2350407648   -0.7567876460    0.1790809527
H        0.0148600265   -0.8030581689    1.2376527765
13   
From optimize.out: Frame 11 / 27, Energy=    -286.8176372828
C        1.4464450767    0.2521611669   -1.2246341666
C        0.6264673542   -1.0179429928   -1.0346156284
C       -0.6038771204   -0.6826892236   -1.9471370686
C       -1.1779632859    0.0834897255   -0.4766886841
C       -0.6191479834    0.7944133626   -1.7066386110
N        0.7442306145    1.2696047097   -1.5767604378
H        2.4862975169    0.3586716990   -0.9197435257
H        1.1718580974   -1.9569782186   -1.1492774654
H       -1.3598619771   -1.4419489617   -2.1037771243
H       -2.1857624342    0.3532610415   -0.1704456848
H       -1.2885828293    1.4430089562   -2.2644084359
C       -0.2305359467   -0.7524287350    0.1918802106
H        0.0094305360   -0.8139973751    1.2519711504
13   
From optimize.out: Frame 12 / 27, Energy=    -286.8212921743
C        1.4489051588    0.2548467116   -1.2279215820
C        0.6321808696   -1.0159012157   -1.0204734779
C       -0.5983835902   -0.6861930211   -1.9215491819
C       -1.1761974338    0.0818392024   -0.4709622839
C       -0.6186013588    0.7902749042   -1.7078928446
N        0.7464616837    1.2697601539   -1.5833220571
H        2.4955012083    0.3594254921   -0.9463526163
H        1.1668859665   -1.9619428414   -1.1259732483
H       -1.3760785577   -1.4004752888   -2.1576808516
H       -2.1920882831    0.3299341190   -0.1739610630
H       -1.2942973776    1.4310564899   -2.2671718292
C       -0.2236822279   -0.7451594578    0.2059429730
H        0.0083915607   -0.8188400937    1.2670425912
13   
From optimize.out: Frame 13 / 27, Energy=    -286.8244024368
C        1.4499920813    0.2560135301   -1.2306922568
C        0.6352588014   -1.0144811876   -1.0071812815
C       -0.6016159064   -0.6880584721   -1.8939759895
C       -1.1760287613    0.0772488138   -0.4682037849
C       -0.6172410365    0.7881637071   -1.7092574528
N        0.7497808098    1.2695348005   -1.5892369144
H        2.5024342153    0.3566582057   -0.9698259061
H        1.1614026820   -1.9660047053   -1.1053164279
H       -1.3849155627   -1.3625476228   -2.2115539030
H       -2.1987315802    0.3035676936   -0.1783998212
H       -1.2983966960    1.4228937852   -2.2689277909
C       -0.2150437108   -0.7365347067    0.2203693953
H        0.0121022828   -0.8178286869    1.2819266619
13   
From optimize.out: Frame 14 / 27, Energy=    -286.8273170374
C        1.4502979239    0.2561223021   -1.2330736640
C        0.6363368892   -1.0131719095   -0.9952293489
C       -0.6116821503   -0.6884893143   -1.8649553486
C       -1.1776741560    0.0696044370   -0.4684079140
C       -0.6151746307    0.7881251725   -1.7103600382
N        0.7537778755    1.2690888628   -1.5942332243
H        2.5078829890    0.3513580552   -0.9909121215
H        1.1554165680   -1.9690793834   -1.0880941370
H       -1.3869172485   -1.3291811781   -2.2612930991
H       -2.2057773625    0.2760581259   -0.1844066874
H       -1.3006533797    1.4185106280   -2.2697855550
C       -0.2058122376   -0.7275445164    0.2344331833
H        0.0189765383   -0.8127761271    1.2960424830
13   
From optimize.out: Frame 15 / 27, Energy=    -286.8301714310
C        1.4502034361    0.2553457123   -1.2353195703
C        0.6354663854   -1.0113983033   -0.9850937222
C       -0.6269409947   -0.6872683479   -1.8364731789
C       -1.1812957088    0.0604022536   -0.4707535620
C       -0.6126124597    0.7904640048   -1.7106421165
N        0.7582590413    1.2683328313   -1.5982433105
H        2.5124645054    0.3437142233   -1.0106628705
H        1.1480403193   -1.9712191368   -1.0742959273
H       -1.3801253128   -1.3045164738   -2.3056693008
H       -2.2134117085    0.2489590943   -0.1904368527
H       -1.3012309722    1.4186676010   -2.2687042449
C       -0.1969931774   -0.7176670295    0.2473674270
H        0.0271742653   -0.8051912745    1.3086517578
13   
From optimize.out: Frame 16 / 27, Energy=    -286.8329641036
C        1.4497881494    0.2531251014   -1.2378575655
C        0.6320625647   -1.0092784846   -0.9779380619
C       -0.6464615186   -0.6840238861   -1.8111042454
C       -1.1873374142    0.0511275190   -0.4741883370
C       -0.6101302967    0.7954812742   -1.7090744292
N        0.7624311957    1.2668709006   -1.6003653791
H        2.5159630719    0.3336449729   -1.0282284834
H        1.1385310817   -1.9726726150   -1.0649840859
H       -1.3609664802   -1.2949130063   -2.3454932574
H       -2.2215359020    0.2255281510   -0.1936349856
H       -1.3003341682    1.4244615227   -2.2641575430
C       -0.1891939104   -0.7061977528    0.2581465042
H        0.0361812455   -0.7945285422    1.3186043975
13   
From optimize.out: Frame 17 / 27, Energy=    -286.8354470634
C        1.4489877472    0.2482560343   -1.2412583653
C        0.6263289792   -1.0090583641   -0.9749071304
C       -0.6685204714   -0.6800457104   -1.7895671441
C       -1.1960020625    0.0403026650   -0.4771496766
C       -0.6089240526    0.8011638918   -1.7056314726
N        0.7639433854    1.2635433158   -1.6009386777
H        2.5171299878    0.3228971837   -1.0390495268
H        1.1293097882   -1.9744386547   -1.0623145147
H       -1.3295848809   -1.2969614791   -2.3843001004
H       -2.2291014006    0.2122419440   -0.1915836698
H       -1.2992853201    1.4334689887   -2.2562771190
C       -0.1826175199   -0.6949776226    0.2668022132
H        0.0473334391   -0.7777670380    1.3258997125
13   
From optimize.out: Frame 18 / 27, Energy=    -286.8371736711
C        1.4486230887    0.2411981935   -1.2459486697
C        0.6202248992   -1.0119035155   -0.9750672800
C       -0.6892060730   -0.6784458277   -1.7713035558
C       -1.2067326606    0.0241370782   -0.4782774354
C       -0.6090005824    0.8037988070   -1.7017783451
N        0.7623304044    1.2587017329   -1.6013832321
H        2.5164297744    0.3140708294   -1.0419158558
H        1.1213015730   -1.9782331206   -1.0640191575
H       -1.2930383005   -1.2955253925   -2.4261560734
H       -2.2352328755    0.2103170504   -0.1850440524
H       -1.3004882111    1.4397460206   -2.2460544116
C       -0.1776621149   -0.6869195523    0.2746390441
H        0.0614486971   -0.7523171489    1.3320335530
13   
From optimize.out: Frame 19 / 27, Energy=    -286.8379404468
C        1.4494808672    0.2334849239   -1.2498741234
C        0.6117001491   -1.0123790492   -0.9801533739
C       -0.7081301781   -0.6765865075   -1.7663685072
C       -1.2221834390    0.0061409608   -0.4777854202
C       -0.6089137833    0.8073584081   -1.6940080250
N        0.7618908733    1.2547201756   -1.5964176423
H        2.5170697429    0.3025256340   -1.0447275845
H        1.0998513473   -1.9855526078   -1.0654451302
H       -1.2393890392   -1.3105862113   -2.4687695823
H       -2.2432244229    0.2096959848   -0.1701679794
H       -1.3030312336    1.4505578673   -2.2255234610
C       -0.1756262223   -0.6764240519    0.2772758384
H        0.0795029572   -0.7143303722    1.3316895193
13   
From optimize.out: Frame 21 / 27, Energy=    -286.8382057671
C        1.4497999853    0.2275662751   -1.2508052721
C        0.6099943539   -1.0181222253   -0.9808639978
C       -0.7083182568   -0.6808519595   -1.7668404294
C       -1.2279755610   -0.0109444089   -0.4756465282
C       -0.6092441133    0.8018458943   -1.6933165710
N        0.7573360882    1.2509293939   -1.5972145343
H        2.5152898149    0.3013303991   -1.0382056435
H        1.0985071636   -1.9912163106   -1.0646468406
H       -1.2260835283   -1.2934940295   -2.4987400225
H       -2.2412978582    0.2226161252   -0.1638233922
H       -1.3119512775    1.4457119186   -2.2123175718
C       -0.1790974988   -0.6833067137    0.2805639403
H        0.0920383066   -0.6834392041    1.3315813915
13   
From optimize.out: Frame 22 / 27, Energy=    -286.8382649297
C        1.4497863644    0.2290265982   -1.2467230255
C        0.6102864959   -1.0166258451   -0.9822325121
C       -0.7088707122   -0.6814570126   -1.7664296237
C       -1.2282685272   -0.0134461999   -0.4758120283
C       -0.6065559786    0.8005755149   -1.6952044135
N        0.7591566995    1.2523432937   -1.5954071081
H        2.5155497876    0.3023394560   -1.0357526998
H        1.0984903079   -1.9897800596   -1.0670867724
H       -1.2336608924   -1.2922723601   -2.4946810662
H       -2.2413729854    0.2211707379   -0.1643155927
H       -1.3092583958    1.4441618995   -2.2148371344
C       -0.1822102222   -0.6890817694    0.2792644539
H        0.0959256771   -0.6783290990    1.3289420512
13   
From optimize.out: Frame 23 / 27, Energy=    -286.8383397253
C        1.4488420555    0.2247909558   -1.2434473817
C        0.6092410621   -1.0187218632   -0.9822472332
C       -0.7063101442   -0.6805239241   -1.7704227197
C       -1.2316561387   -0.0225185714   -0.4770749284
C       -0.6047554621    0.7992168220   -1.6935815552
N        0.7580010959    1.2513935009   -1.5856509975
H        2.5150076178    0.2967131826   -1.0352871093
H        1.0997579119   -1.9908985735   -1.0667679755
H       -1.2381158662   -1.2840285249   -2.4996439669
H       -2.2452257762    0.2137241221   -0.1689027380
H       -1.3083242763    1.4454581146   -2.2088208056
C       -0.1882995997   -0.6966902975    0.2787589064
H        0.1108351390   -0.6492897889    1.3228130327
13   
From optimize.out: Frame 24 / 27, Energy=    -286.8383641264
C        1.4480407901    0.2232537491   -1.2375241490
C        0.6074539404   -1.0206872798   -0.9840851098
C       -0.7094487403   -0.6794230657   -1.7715180843
C       -1.2338468670   -0.0270366933   -0.4769775681
C       -0.6053781279    0.7992408911   -1.6937150229
N        0.7587224235    1.2483137554   -1.5880160678
H        2.5132302974    0.2960104235   -1.0243160326
H        1.0968724633   -1.9932262109   -1.0718292184
H       -1.2355013794   -1.2840660714   -2.5042153978
H       -2.2464829769    0.2127500054   -0.1684708897
H       -1.3091741536    1.4478423132   -2.2053917845
C       -0.1906038641   -0.7028208409    0.2787755271
H        0.1251138132   -0.6315258212    1.3170083262
13   
From optimize.out: Frame 25 / 27, Energy=    -286.8383768561
C        1.4483021141    0.2221394918   -1.2407871825
C        0.6067587395   -1.0214223082   -0.9841894140
C       -0.7099948401   -0.6794125980   -1.7710818214
C       -1.2348256150   -0.0282027491   -0.4779754377
C       -0.6061310564    0.8001988765   -1.6916357501
N        0.7588594313    1.2494324242   -1.5828506401
H        2.5132941586    0.2940576336   -1.0260283163
H        1.0952681564   -1.9943460351   -1.0721897923
H       -1.2321943830   -1.2862497121   -2.5048387199
H       -2.2483505853    0.2107756972   -0.1714714996
H       -1.3088055783    1.4499373003   -2.2031681736
C       -0.1903919149   -0.7019213885    0.2793098962
H        0.1272089917   -0.6263614781    1.3166313798
13   
From optimize.out: Frame 26 / 27, Energy=    -286.8383800304
C        1.4477084858    0.2224287169   -1.2402413924
C        0.6064218728   -1.0220731696   -0.9839138703
C       -0.7092442985   -0.6793948730   -1.7714325113
C       -1.2341325392   -0.0269902047   -0.4781491691
C       -0.6066993826    0.8006110183   -1.6910491352
N        0.7584278584    1.2492294744   -1.5832999057
H        2.5129548007    0.2938010313   -1.0262205992
H        1.0958300394   -1.9943518291   -1.0734648608
H       -1.2328701283   -1.2867875429   -2.5036744634
H       -2.2485474730    0.2103351618   -0.1731172181
H       -1.3084848891    1.4504017967   -2.2036651713
C       -0.1893208444   -0.7009861050    0.2800514852
H        0.1269541167   -0.6275983206    1.3179013398
