13   
From optimize.out: Frame 1 / 25, Energy=    -286.6486751627
C        1.6800878628    0.2643042736   -2.0946398523
C        1.0324371669   -0.9531014999   -1.8642108349
C       -0.5297382883   -1.0647090544   -2.2017283180
C       -1.3945171571    0.4359844674   -0.5215511279
C       -0.7660576940    0.7848693288   -1.9290617723
N        0.9161628896    1.3788877321   -2.4883381240
H        2.5936663408    0.6669191536   -1.6694092856
H        1.6052559267   -1.7882226553   -1.4781436429
H       -0.9332067040   -2.0126483832   -2.7885105774
H       -2.4365546627    0.6693468659   -0.2944900482
H       -1.1829147229    1.4147366948   -2.7209956619
C       -0.9608184321   -0.8902064543   -0.8952476927
H       -1.4977698951   -1.7805200273   -0.5238155112
13   
From optimize.out: Frame 2 / 25, Energy=    -286.6920728700
C        1.6492343985    0.2689946222   -2.0732348211
C        1.0264826100   -0.9515870959   -1.8697702922
C       -0.5083486116   -1.0352352742   -2.2026321183
C       -1.3706242103    0.4253323375   -0.5559352144
C       -0.7662762554    0.7738603939   -1.9495007373
N        0.8738251425    1.3596855278   -2.4577107989
H        2.5823259432    0.6445394489   -1.6587421848
H        1.5922814866   -1.8033687890   -1.5051448711
H       -0.9011357388   -1.9408972513   -2.7946944161
H       -2.4022128248    0.6724900214   -0.3136659935
H       -1.1924251448    1.3892820471   -2.7451319092
C       -0.9660125920   -0.8952904198   -0.8726429721
H       -1.4910815725   -1.7821651267   -0.4713361204
13   
From optimize.out: Frame 3 / 25, Energy=    -286.7287688643
C        1.6258056593    0.2750512780   -2.0532603587
C        1.0244750696   -0.9512348410   -1.8761410351
C       -0.4900797200   -1.0017099698   -2.1990105033
C       -1.3517455667    0.4138219802   -0.5879291364
C       -0.7599559062    0.7587834540   -1.9696379318
N        0.8277226644    1.3350462579   -2.4209888933
H        2.5737800046    0.6294731340   -1.6508733577
H        1.5849531957   -1.8174610361   -1.5354695689
H       -0.8828075110   -1.8696485380   -2.7998952510
H       -2.3754844760    0.6734550141   -0.3325417813
H       -1.1946782643    1.3577568004   -2.7710923966
C       -0.9714455617   -0.8993224443   -0.8492410391
H       -1.4845069572   -1.7783706476   -0.4240611962
13   
From optimize.out: Frame 4 / 25, Energy=    -286.7588227518
C        1.6061458042    0.2830397980   -2.0307609985
C        1.0267821355   -0.9536867185   -1.8821025335
C       -0.4733859733   -0.9722841761   -2.1940173401
C       -1.3370578697    0.4055219135   -0.6152704909
C       -0.7493964810    0.7420975815   -1.9909878230
N        0.7823095384    1.3129303323   -2.3822228901
H        2.5675940446    0.6228121335   -1.6463212351
H        1.5833422401   -1.8327201718   -1.5672396970
H       -0.8709923184   -1.8082440031   -2.8091842454
H       -2.3514871154    0.6821740017   -0.3441394477
H       -1.1952243131    1.3243247323   -2.7978323650
C       -0.9795094757   -0.9052331947   -0.8286182904
H       -1.4830875856   -1.7750917868   -0.3814450927
13   
From optimize.out: Frame 5 / 25, Energy=    -286.7834260872
C        1.5900599142    0.2921227872   -2.0075592544
C        1.0323741924   -0.9573675362   -1.8886602067
C       -0.4583622351   -0.9488612065   -2.1874064658
C       -1.3266510015    0.3996010450   -0.6392365903
C       -0.7358666441    0.7247231923   -2.0121584067
N        0.7416735012    1.2954143694   -2.3418455020
H        2.5638950836    0.6207836620   -1.6448134064
H        1.5868092152   -1.8467500999   -1.6003711867
H       -0.8632045879   -1.7562343356   -2.8196390607
H       -2.3299820519    0.6975417318   -0.3506994393
H       -1.1970889293    1.2893531137   -2.8231167594
C       -0.9907030466   -0.9123259052   -0.8108543739
H       -1.4869207797   -1.7723603760   -0.3437817970
13   
From optimize.out: Frame 6 / 25, Energy=    -286.8033583074
C        1.5782614820    0.3018013190   -1.9850800074
C        1.0405185906   -0.9611854634   -1.8963238298
C       -0.4447796779   -0.9325005208   -2.1790231896
C       -1.3216732080    0.3949199040   -0.6605223909
C       -0.7216988385    0.7072076445   -2.0318582715
N        0.7100945162    1.2844325298   -2.3005335437
H        2.5641109612    0.6204719400   -1.6470956119
H        1.5952907334   -1.8581693975   -1.6347688787
H       -0.8566061412   -1.7138554317   -2.8296627387
H       -2.3115472463    0.7185694488   -0.3532219228
H       -1.2029558475    1.2531987774   -2.8450050691
C       -1.0062807647   -0.9194829205   -0.7960005990
H       -1.4967019286   -1.7697673878   -0.3110463963
13   
From optimize.out: Frame 7 / 25, Energy=    -286.8194679306
C        1.5708485076    0.3115432065   -1.9647274346
C        1.0503483050   -0.9643307202   -1.9047465469
C       -0.4322277113   -0.9230152524   -2.1688770732
C       -1.3228264499    0.3906760300   -0.6795208858
C       -0.7088983761    0.6897697329   -2.0488631614
N        0.6890675630    1.2803371600   -2.2589543617
H        2.5686673949    0.6200629492   -1.6541930474
H        1.6082843973   -1.8660773308   -1.6694266035
H       -0.8489440864   -1.6808055308   -2.8385928180
H       -2.2962802542    0.7445617720   -0.3525216194
H       -1.2130105628    1.2166072513   -2.8621148712
C       -1.0267065389   -0.9262064901   -0.7841732485
H       -1.5122895576   -1.7674823358   -0.2834307777
13   
From optimize.out: Frame 8 / 25, Energy=    -286.8326216074
C        1.5662719824    0.3207371152   -1.9471309869
C        1.0609945751   -0.9670462418   -1.9131020979
C       -0.4202972573   -0.9194226076   -2.1573655133
C       -1.3290760886    0.3866745772   -0.6966813135
C       -0.6978144906    0.6725453350   -2.0625549295
N        0.6754101837    1.2810772713   -2.2173286642
H        2.5754536354    0.6199150666   -1.6660383863
H        1.6249734016   -1.8707460361   -1.7028923542
H       -0.8394736454   -1.6557309902   -2.8466018141
H       -2.2824668131    0.7752755138   -0.3493346392
H       -1.2247261875    1.1807335356   -2.8743284833
C       -1.0510168552   -0.9324864264   -0.7756338827
H       -1.5321998099   -1.7658856708   -0.2611493841
13   
From optimize.out: Frame 9 / 25, Energy=    -286.8434159131
C        1.5631279732    0.3288744750   -1.9322906317
C        1.0718180606   -0.9697857170   -1.9206981518
C       -0.4090146764   -0.9205987774   -2.1450224089
C       -1.3389012117    0.3827860799   -0.7125835368
C       -0.6880602217    0.6559075417   -2.0730659094
N        0.6650104090    1.2837698616   -2.1757176652
H        2.5822130846    0.6211678014   -1.6814404978
H        1.6443919523   -1.8728043015   -1.7339976567
H       -0.8286846111   -1.6369457806   -2.8539998332
H       -2.2677524026    0.8101614595   -0.3439980885
H       -1.2357894540    1.1466190045   -2.8826451927
C       -1.0779075011   -0.9383377650   -0.7706678627
H       -1.5544187706   -1.7651734403   -0.2440150140
13   
From optimize.out: Frame 10 / 25, Energy=    -286.8522014272
C        1.5609019463    0.3357634023   -1.9198770859
C        1.0821383464   -0.9724669709   -1.9271120225
C       -0.3988674842   -0.9253215671   -2.1323905088
C       -1.3512768549    0.3787260015   -0.7277967137
C       -0.6795722097    0.6403064441   -2.0810835961
N        0.6557662860    1.2864896064   -2.1348831967
H        2.5878604379    0.6242962888   -1.6984138742
H        1.6649785437   -1.8727045661   -1.7619351049
H       -0.8173812293   -1.6228371760   -2.8610452020
H       -2.2502896282    0.8479294845   -0.3363545156
H       -1.2453169903    1.1147468592   -2.8886800377
C       -1.1062162229   -0.9438165383   -0.7693480252
H       -1.5766923104   -1.7654708266   -0.2312225661
13   
From optimize.out: Frame 11 / 25, Energy=    -286.8592148942
C        1.5590692148    0.3414270225   -1.9094864084
C        1.0911673410   -0.9748066397   -1.9320220587
C       -0.3904143801   -0.9323829704   -2.1200815166
C       -1.3655442027    0.3743769800   -0.7427677146
C       -0.6725500015    0.6261018488   -2.0874264919
N        0.6468090415    1.2884810212   -2.0961517842
H        2.5916846665    0.6290577628   -1.7147106857
H        1.6848713985   -1.8709054215   -1.7859929672
H       -0.8060807287   -1.6120375213   -2.8682097100
H       -2.2286947254    0.8870438870   -0.3259302567
H       -1.2528777438    1.0852662072   -2.8941564284
C       -1.1347869682   -0.9490729585   -0.7715401923
H       -1.5966202813   -1.7669087762   -0.2216662346
13   
From optimize.out: Frame 12 / 25, Energy=    -286.8646599490
C        1.5571667951    0.3459800699   -1.9007399522
C        1.0982368192   -0.9765228245   -1.9350704823
C       -0.3841740808   -0.9405734786   -2.1088687214
C       -1.3812798625    0.3697516756   -0.7578435247
C       -0.6673331600    0.6136322396   -2.0929012559
N        0.6378664951    1.2895805469   -2.0610712417
H        2.5934004285    0.6348112534   -1.7283855669
H        1.7023641222   -1.8678863632   -1.8052987604
H       -0.7951856606   -1.6034231337   -2.8760653092
H       -2.2021209246    0.9254716632   -0.3120635629
H       -1.2582863024    1.0583366854   -2.9006309322
C       -1.1625865813   -0.9541514754   -0.7770039986
H       -1.6120354573   -1.7693664167   -0.2141991409
13   
From optimize.out: Frame 13 / 25, Energy=    -286.8687431395
C        1.5545598843    0.3495380296   -1.8930930887
C        1.1028179775   -0.9775652697   -1.9361530835
C       -0.3804673137   -0.9489076156   -2.0996681586
C       -1.3980568937    0.3651553904   -0.7733019657
C       -0.6641688689    0.6032061273   -2.0982547753
N        0.6287352144    1.2899939984   -2.0309937414
H        2.5927262634    0.6408085026   -1.7376991042
H        1.7161250440   -1.8642639561   -1.8192761105
H       -0.7850070088   -1.5963585897   -2.8850889826
H       -2.1702508918    0.9610060614   -0.2942880902
H       -1.2613948022    1.0342663402   -2.9093233018
C       -1.1885658284   -0.9588973276   -0.7853402395
H       -1.6210201453   -1.7723412494   -0.2076618073
13   
From optimize.out: Frame 14 / 25, Energy=    -286.8716778438
C        1.5509797212    0.3522196516   -1.8859881559
C        1.1046472702   -0.9779359478   -1.9353343844
C       -0.3794208501   -0.9565440626   -2.0933869627
C       -1.4155787403    0.3609294572   -0.7894158454
C       -0.6632105532    0.5950027157   -2.1041779447
N        0.6195578181    1.2900014318   -2.0067552032
H        2.5898446717    0.6463298522   -1.7415743246
H        1.7253247084   -1.8605755131   -1.8276899685
H       -0.7759930089   -1.5906050732   -2.8954486280
H       -2.1336472287    0.9912202516   -0.2724819382
H       -1.2623088512    1.0134934776   -2.9209464817
C       -1.2118965399   -0.9629671629   -0.7959859592
H       -1.6222657866   -1.7749286365   -0.2009566526
13   
From optimize.out: Frame 15 / 25, Energy=    -286.8736635594
C        1.5458806498    0.3540813827   -1.8787293440
C        1.1036267957   -0.9779294107   -1.9332613695
C       -0.3808679270   -0.9630952371   -2.0907667103
C       -1.4335467142    0.3575251973   -0.8063913514
C       -0.6643508253    0.5889794098   -2.1111252765
N        0.6100668686    1.2899219722   -1.9882142933
H        2.5845191044    0.6509073350   -1.7389970235
H        1.7296833859   -1.8574274010   -1.8313621694
H       -0.7685474246   -1.5864831381   -2.9070050404
H       -2.0932198241    1.0147547751   -0.2474393504
H       -1.2608429720    0.9965099661   -2.9357592771
C       -1.2316688206   -0.9660041223   -0.8080970548
H       -1.6146996659   -1.7761002874   -0.1929941887
13   
From optimize.out: Frame 16 / 25, Energy=    -286.8748589232
C        1.5395692071    0.3552728498   -1.8708219225
C        1.0999023881   -0.9774711318   -1.9302712236
C       -0.3846917533   -0.9682182760   -2.0923637455
C       -1.4521825345    0.3544775184   -0.8241681044
C       -0.6678266602    0.5848280744   -2.1192772151
N        0.6006203661    1.2897319437   -1.9747416356
H        2.5773216948    0.6542940779   -1.7297878411
H        1.7292733435   -1.8549350190   -1.8311208578
H       -0.7633177487   -1.5844485409   -2.9194112775
H       -2.0497573579    1.0315300451   -0.2210609250
H       -1.2575566835    0.9840177136   -2.9532373902
C       -1.2474379749   -0.9680966312   -0.8208089336
H       -1.5978836562   -1.7753421820   -0.1830713773
13   
From optimize.out: Frame 17 / 25, Energy=    -286.8753708043
C        1.5302529567    0.3555630423   -1.8610967809
C        1.0931990277   -0.9774976370   -1.9283014432
C       -0.3905457320   -0.9722925689   -2.0989398799
C       -1.4711785693    0.3526160970   -0.8431670501
C       -0.6732575861    0.5823395632   -2.1289037535
N        0.5895386407    1.2897266706   -1.9645549609
H        2.5662288810    0.6562844589   -1.7113944739
H        1.7241032644   -1.8540628615   -1.8301222203
H       -0.7606992233   -1.5860018837   -2.9321689493
H       -2.0042018302    1.0419484958   -0.1952696379
H       -1.2505847654    0.9769148571   -2.9740007159
C       -1.2574407815   -0.9686343961   -0.8327227857
H       -1.5693816521   -1.7712633960   -0.1694997977
13   
From optimize.out: Frame 18 / 25, Energy=    -286.8754110071
C        1.5281792570    0.3554350988   -1.8589805588
C        1.0913637448   -0.9772916358   -1.9275691227
C       -0.3923313263   -0.9729044184   -2.1020321451
C       -1.4756082239    0.3515719089   -0.8475512740
C       -0.6751003787    0.5818442488   -2.1307348061
N        0.5875909379    1.2896606111   -1.9634573323
H        2.5635016193    0.6566724003   -1.7062755299
H        1.7222149769   -1.8540588485   -1.8293556935
H       -0.7607769290   -1.5871435960   -2.9347402536
H       -1.9943739563    1.0430503114   -0.1895554772
H       -1.2482937592    0.9765933828   -2.9788747850
C       -1.2590272884   -0.9675551124   -0.8344462240
H       -1.5613060435   -1.7702339094   -0.1665692472
13   
From optimize.out: Frame 19 / 25, Energy=    -286.8754283251
C        1.5272805876    0.3552122345   -1.8582533542
C        1.0901075749   -0.9770914522   -1.9270412107
C       -0.3932942448   -0.9726346712   -2.1044968644
C       -1.4775210361    0.3517498712   -0.8491440042
C       -0.6765861121    0.5819836430   -2.1313878307
N        0.5872571340    1.2894830949   -1.9643411137
H        2.5622155462    0.6566058649   -1.7032375714
H        1.7205967032   -1.8542325953   -1.8284330982
H       -0.7613807644   -1.5884105340   -2.9355008738
H       -1.9909703673    1.0419454602   -0.1877887590
H       -1.2466566569    0.9779391194   -2.9808295757
C       -1.2586070567   -0.9671946256   -0.8342114134
H       -1.5564086770   -1.7697149680   -0.1654767798
13   
From optimize.out: Frame 20 / 25, Energy=    -286.8754378847
C        1.5269692357    0.3550252890   -1.8580792445
C        1.0892282072   -0.9770032082   -1.9266444467
C       -0.3939170755   -0.9719111185   -2.1061332406
C       -1.4775656335    0.3515579998   -0.8495755680
C       -0.6778864513    0.5823487949   -2.1315708333
N        0.5874620138    1.2892131430   -1.9658212810
H        2.5617075685    0.6563464268   -1.7014915501
H        1.7192831194   -1.8544272635   -1.8276573358
H       -0.7620121674   -1.5895878704   -2.9355390233
H       -1.9909190845    1.0407367662   -0.1876410634
H       -1.2454529080    0.9798641525   -2.9814739905
C       -1.2572989748   -0.9665921384   -0.8335501970
H       -1.5535652190   -1.7699305314   -0.1649646751
13   
From optimize.out: Frame 21 / 25, Energy=    -286.8754436250
C        1.5267466729    0.3548926241   -1.8579761993
C        1.0885774128   -0.9769627892   -1.9264125519
C       -0.3943252039   -0.9713228383   -2.1070500324
C       -1.4769782280    0.3516334675   -0.8495289743
C       -0.6787571368    0.5827532034   -2.1318423505
N        0.5875565053    1.2889683000   -1.9669402196
H        2.5615271042    0.6560412311   -1.7004728879
H        1.7183135597   -1.8545667213   -1.8271701611
H       -0.7623408354   -1.5904888017   -2.9354448753
H       -1.9917640529    1.0402302699   -0.1878970448
H       -1.2446859575    0.9816319169   -2.9818131843
C       -1.2560211845   -0.9667232785   -0.8330286371
H       -1.5518160254   -1.7704461422   -0.1645653308
13   
From optimize.out: Frame 22 / 25, Energy=    -286.8754486536
C        1.5263719476    0.3547771998   -1.8576845584
C        1.0878623229   -0.9769322455   -1.9262631489
C       -0.3947825512   -0.9709219413   -2.1077661010
C       -1.4761865967    0.3515589085   -0.8492936757
C       -0.6794268683    0.5831602245   -2.1324774035
N        0.5873327299    1.2887438539   -1.9677481741
H        2.5612701947    0.6556466013   -1.6994307477
H        1.7172738055   -1.8546748364   -1.8267781404
H       -0.7624198056   -1.5913586145   -2.9354722082
H       -1.9924881635    1.0403707390   -0.1881026957
H       -1.2440418747    0.9835540598   -2.9824765960
C       -1.2548307763   -0.9670278210   -0.8327640161
H       -1.5499017337   -1.7712556862   -0.1638849837
13   
From optimize.out: Frame 23 / 25, Energy=    -286.8754525840
C        1.5258264041    0.3547025766   -1.8571613353
C        1.0871754192   -0.9769006339   -1.9262466666
C       -0.3952446146   -0.9708861707   -2.1083041346
C       -1.4756803373    0.3514501758   -0.8490256529
C       -0.6798092920    0.5834192330   -2.1334291244
N        0.5868206974    1.2886356686   -1.9679835998
H        2.5608177789    0.6552392714   -1.6983199466
H        1.7162719482   -1.8547330566   -1.8265087888
H       -0.7622698738   -1.5921317635   -2.9357351131
H       -1.9924132589    1.0410683648   -0.1880899856
H       -1.2436082647    0.9852693308   -2.9835261079
C       -1.2541531760   -0.9674640695   -0.8327726215
H       -1.5477008000   -1.7720284848   -0.1630393722
13   
From optimize.out: Frame 24 / 25, Energy=    -286.8754551774
C        1.5252625241    0.3546754403   -1.8565462305
C        1.0866734471   -0.9768684793   -1.9263768824
C       -0.3956175554   -0.9711415519   -2.1086406128
C       -1.4755757032    0.3513112919   -0.8488704328
C       -0.6799565360    0.5834478340   -2.1343701855
N        0.5862496296    1.2886604477   -1.9676808228
H        2.5602491189    0.6548979650   -1.6973125928
H        1.7154874512   -1.8547712543   -1.8263803248
H       -0.7620375519   -1.5927098189   -2.9361424676
H       -1.9916253156    1.0419402171   -0.1879900877
H       -1.2434442518    0.9864575840   -2.9846168224
C       -1.2540770107   -0.9677383858   -0.8329324074
H       -1.5455556158   -1.7725208479   -0.1622825797
